<?xml version="1.0" encoding="UTF-8"?>

<!-- generated on Thứ tư, 06 Tháng 5 Năm 2020 21:42:14 +07 by Eclipse SUMO netedit Version 1.4.0
<configuration xmlns:xsi="http://www.w3.org/2001/XMLSchema-instance" xsi:noNamespaceSchemaLocation="http://sumo.dlr.de/xsd/netconvertConfiguration.xsd">

    <input>
        <sumo-net-file value="/home/vtoan/Thesis/Optimal%20Controls/distributed_DQL_v3_w5/one_run/cross.net.xml"/>
    </input>

    <output>
        <output-file value="/home/vtoan/Thesis/Optimal%20Controls/distributed_DQL_v3_w5/one_run/cross.net.xml"/>
    </output>

    <processing>
        <geometry.min-radius.fix.railways value="false"/>
        <geometry.max-grade.fix value="false"/>
        <offset.disable-normalization value="true"/>
        <lefthand value="false"/>
    </processing>

    <junctions>
        <no-turnarounds value="true"/>
        <junctions.corner-detail value="0"/>
        <junctions.limit-turn-speed value="-1"/>
        <rectangular-lane-cut value="false"/>
    </junctions>

    <pedestrian>
        <walkingareas value="false"/>
    </pedestrian>

    <report>
        <aggregate-warnings value="5"/>
    </report>

</configuration>
-->

<net version="1.3" xmlns:xsi="http://www.w3.org/2001/XMLSchema-instance" xsi:noNamespaceSchemaLocation="http://sumo.dlr.de/xsd/net_file.xsd">

    <location netOffset="300.00,300.00" convBoundary="0.00,0.00,600.00,600.00" origBoundary="-310.00,-310.00,310.00,310.00" projParameter="!"/>

    <type id="come_out_of_junction" priority="46" numLanes="1" speed="11.11"/>
    <type id="come_out_of_rd" priority="40" numLanes="1" speed="11.11"/>
    <type id="go_in_to_junction" priority="78" numLanes="1" speed="19.44"/>

    <edge id=":1_0" function="internal">
        <lane id=":1_0_0" index="0" speed="15.28" length="5.84" width="4.00" shape="0.00,302.00 -1.50,301.00 -2.00,300.00 -1.50,299.00 0.00,298.00"/>
    </edge>
    <edge id=":2_0" function="internal">
        <lane id=":2_0_0" index="0" speed="15.28" length="5.84" width="4.00" shape="600.00,298.00 601.50,299.00 602.00,300.00 601.50,301.00 600.00,302.00"/>
    </edge>
    <edge id=":3_0" function="internal">
        <lane id=":3_0_0" index="0" speed="15.28" length="5.84" width="4.00" shape="298.00,0.00 299.00,-1.50 300.00,-2.00 301.00,-1.50 302.00,0.00"/>
    </edge>
    <edge id=":4_0" function="internal">
        <lane id=":4_0_0" index="0" speed="15.28" length="5.84" width="4.00" shape="302.00,600.00 301.00,601.50 300.00,602.00 299.00,601.50 298.00,600.00"/>
    </edge>
    <edge id=":node0_0" function="internal">
        <lane id=":node0_0_0" index="0" speed="15.28" length="9.68" width="4.00" shape="290.00,316.00 289.62,313.38 288.50,311.50 286.62,310.38 284.00,310.00"/>
    </edge>
    <edge id=":node0_1" function="internal">
        <lane id=":node0_1_0" index="0" speed="15.28" length="32.00" width="4.00" shape="290.00,316.00 290.00,284.00"/>
        <lane id=":node0_1_1" index="1" speed="15.28" length="32.00" width="4.00" shape="294.00,316.00 294.00,284.00"/>
    </edge>
    <edge id=":node0_3" function="internal">
        <lane id=":node0_3_0" index="0" speed="15.28" length="29.03" width="4.00" shape="298.00,316.00 299.12,308.12 302.50,302.50 308.12,299.12 316.00,298.00"/>
    </edge>
    <edge id=":node0_4" function="internal">
        <lane id=":node0_4_0" index="0" speed="15.28" length="9.68" width="4.00" shape="316.00,310.00 313.38,310.38 311.50,311.50 310.38,313.38 310.00,316.00"/>
    </edge>
    <edge id=":node0_5" function="internal">
        <lane id=":node0_5_0" index="0" speed="15.28" length="32.00" width="4.00" shape="316.00,310.00 284.00,310.00"/>
        <lane id=":node0_5_1" index="1" speed="15.28" length="32.00" width="4.00" shape="316.00,306.00 284.00,306.00"/>
    </edge>
    <edge id=":node0_7" function="internal">
        <lane id=":node0_7_0" index="0" speed="15.28" length="29.03" width="4.00" shape="316.00,302.00 308.12,300.88 302.50,297.50 299.12,291.88 298.00,284.00"/>
    </edge>
    <edge id=":node0_8" function="internal">
        <lane id=":node0_8_0" index="0" speed="15.28" length="9.68" width="4.00" shape="310.00,284.00 310.38,286.62 311.50,288.50 313.38,289.62 316.00,290.00"/>
    </edge>
    <edge id=":node0_9" function="internal">
        <lane id=":node0_9_0" index="0" speed="15.28" length="32.00" width="4.00" shape="310.00,284.00 310.00,316.00"/>
        <lane id=":node0_9_1" index="1" speed="15.28" length="32.00" width="4.00" shape="306.00,284.00 306.00,316.00"/>
    </edge>
    <edge id=":node0_11" function="internal">
        <lane id=":node0_11_0" index="0" speed="15.28" length="29.03" width="4.00" shape="302.00,284.00 300.88,291.88 297.50,297.50 291.88,300.88 284.00,302.00"/>
    </edge>
    <edge id=":node0_12" function="internal">
        <lane id=":node0_12_0" index="0" speed="15.28" length="9.68" width="4.00" shape="284.00,290.00 286.62,289.62 288.50,288.50 289.62,286.62 290.00,284.00"/>
    </edge>
    <edge id=":node0_13" function="internal">
        <lane id=":node0_13_0" index="0" speed="15.28" length="32.00" width="4.00" shape="284.00,290.00 316.00,290.00"/>
        <lane id=":node0_13_1" index="1" speed="15.28" length="32.00" width="4.00" shape="284.00,294.00 316.00,294.00"/>
    </edge>
    <edge id=":node0_15" function="internal">
        <lane id=":node0_15_0" index="0" speed="15.28" length="29.03" width="4.00" shape="284.00,298.00 291.88,299.12 297.50,302.50 300.88,308.12 302.00,316.00"/>
    </edge>

    <edge id="CtoE" from="node0" to="2" priority="46" type="come_out_of_junction" length="150.00">
        <lane id="CtoE_0" index="0" speed="11.11" length="150.00" width="4.00" shape="316.00,290.00 600.00,290.00"/>
        <lane id="CtoE_1" index="1" speed="11.11" length="150.00" width="4.00" shape="316.00,294.00 600.00,294.00"/>
        <lane id="CtoE_2" index="2" speed="11.11" length="150.00" width="4.00" shape="316.00,298.00 600.00,298.00"/>
    </edge>
    <edge id="CtoN" from="node0" to="4" priority="46" type="come_out_of_junction" length="150.00">
        <lane id="CtoN_0" index="0" speed="11.11" length="150.00" width="4.00" shape="310.00,316.00 310.00,600.00"/>
        <lane id="CtoN_1" index="1" speed="11.11" length="150.00" width="4.00" shape="306.00,316.00 306.00,600.00"/>
        <lane id="CtoN_2" index="2" speed="11.11" length="150.00" width="4.00" shape="302.00,316.00 302.00,600.00"/>
    </edge>
    <edge id="CtoS" from="node0" to="3" priority="46" type="come_out_of_junction" length="150.00">
        <lane id="CtoS_0" index="0" speed="11.11" length="150.00" width="4.00" shape="290.00,284.00 290.00,0.00"/>
        <lane id="CtoS_1" index="1" speed="11.11" length="150.00" width="4.00" shape="294.00,284.00 294.00,0.00"/>
        <lane id="CtoS_2" index="2" speed="11.11" length="150.00" width="4.00" shape="298.00,284.00 298.00,0.00"/>
    </edge>
    <edge id="CtoW" from="node0" to="1" priority="46" type="come_out_of_junction" length="150.00">
        <lane id="CtoW_0" index="0" speed="11.11" length="150.00" width="4.00" shape="284.00,310.00 0.00,310.00"/>
        <lane id="CtoW_1" index="1" speed="11.11" length="150.00" width="4.00" shape="284.00,306.00 0.00,306.00"/>
        <lane id="CtoW_2" index="2" speed="11.11" length="150.00" width="4.00" shape="284.00,302.00 0.00,302.00"/>
    </edge>
    <edge id="EtoC" from="2" to="node0" priority="78" type="go_in_to_junction" length="150.00">
        <lane id="EtoC_0" index="0" speed="19.44" length="150.00" width="4.00" shape="600.00,310.00 316.00,310.00"/>
        <lane id="EtoC_1" index="1" speed="19.44" length="150.00" width="4.00" shape="600.00,306.00 316.00,306.00"/>
        <lane id="EtoC_2" index="2" speed="19.44" length="150.00" width="4.00" shape="600.00,302.00 316.00,302.00"/>
    </edge>
    <edge id="NtoC" from="4" to="node0" priority="78" type="go_in_to_junction" length="150.00">
        <lane id="NtoC_0" index="0" speed="19.44" length="150.00" width="4.00" shape="290.00,600.00 290.00,316.00"/>
        <lane id="NtoC_1" index="1" speed="19.44" length="150.00" width="4.00" shape="294.00,600.00 294.00,316.00"/>
        <lane id="NtoC_2" index="2" speed="19.44" length="150.00" width="4.00" shape="298.00,600.00 298.00,316.00"/>
    </edge>
    <edge id="StoC" from="3" to="node0" priority="78" type="go_in_to_junction" length="150.00">
        <lane id="StoC_0" index="0" speed="19.44" length="150.00" width="4.00" shape="310.00,0.00 310.00,284.00"/>
        <lane id="StoC_1" index="1" speed="19.44" length="150.00" width="4.00" shape="306.00,0.00 306.00,284.00"/>
        <lane id="StoC_2" index="2" speed="19.44" length="150.00" width="4.00" shape="302.00,0.00 302.00,284.00"/>
    </edge>
    <edge id="WtoC" from="1" to="node0" priority="78" type="go_in_to_junction" length="150.00">
        <lane id="WtoC_0" index="0" speed="19.44" length="150.00" width="4.00" shape="0.00,290.00 284.00,290.00"/>
        <lane id="WtoC_1" index="1" speed="19.44" length="150.00" width="4.00" shape="0.00,294.00 284.00,294.00"/>
        <lane id="WtoC_2" index="2" speed="19.44" length="150.00" width="4.00" shape="0.00,298.00 284.00,298.00"/>
    </edge>

    <tlLogic id="node0" type="static" programID="0" offset="0">
        <phase duration="1000000" state="grrrgGGGgrrrgGGG"/>
        <phase duration="1000000" state="yrrryyyyyrrryyyy"/>
        <phase duration="1000000" state="gGGGgrrrgGGGgrrr"/>
        <phase duration="1000000" state="yyyyyrrryyyyyrrr"/>
    </tlLogic>

    <junction id="1" type="priority" x="0.00" y="300.00" incLanes="CtoW_0 CtoW_1 CtoW_2" intLanes=":1_0_0" shape="0.00,300.00 0.00,312.00 0.00,300.00">
        <request index="0" response="0" foes="0" cont="0"/>
    </junction>
    <junction id="2" type="priority" x="600.00" y="300.00" incLanes="CtoE_0 CtoE_1 CtoE_2" intLanes=":2_0_0" shape="600.00,300.00 600.00,288.00 600.00,300.00">
        <request index="0" response="0" foes="0" cont="0"/>
    </junction>
    <junction id="3" type="priority" x="300.00" y="0.00" incLanes="CtoS_0 CtoS_1 CtoS_2" intLanes=":3_0_0" shape="300.00,0.00 288.00,0.00 300.00,0.00">
        <request index="0" response="0" foes="0" cont="0"/>
    </junction>
    <junction id="4" type="priority" x="300.00" y="600.00" incLanes="CtoN_0 CtoN_1 CtoN_2" intLanes=":4_0_0" shape="300.00,600.00 312.00,600.00 300.00,600.00">
        <request index="0" response="0" foes="0" cont="0"/>
    </junction>
    <junction id="node0" type="traffic_light" x="300.00" y="300.00" incLanes="NtoC_0 NtoC_1 NtoC_2 EtoC_0 EtoC_1 EtoC_2 StoC_0 StoC_1 StoC_2 WtoC_0 WtoC_1 WtoC_2" intLanes=":node0_0_0 :node0_1_0 :node0_1_1 :node0_3_0 :node0_4_0 :node0_5_0 :node0_5_1 :node0_7_0 :node0_8_0 :node0_9_0 :node0_9_1 :node0_11_0 :node0_12_0 :node0_13_0 :node0_13_1 :node0_15_0" shape="288.00,316.00 312.00,316.00 316.00,312.00 316.00,288.00 312.00,284.00 288.00,284.00 284.00,288.00 284.00,312.00">
        <request index="0"  response="0000000000000000" foes="0000000001100000" cont="0"/>
        <request index="1"  response="0000000000000000" foes="1111100001100000" cont="0"/>
        <request index="2"  response="0000000000000000" foes="1111100001100000" cont="0"/>
        <request index="3"  response="0000011000000000" foes="1000011011100000" cont="0"/>
        <request index="4"  response="0000011000000000" foes="0000011000000000" cont="0"/>
        <request index="5"  response="0000011000001111" foes="1000011000001111" cont="0"/>
        <request index="6"  response="0000011000001111" foes="1000011000001111" cont="0"/>
        <request index="7"  response="0110111000001000" foes="0110111000001000" cont="0"/>
        <request index="8"  response="0000000000000000" foes="0110000000000000" cont="0"/>
        <request index="9"  response="0000000000000000" foes="0110000011111000" cont="0"/>
        <request index="10" response="0000000000000000" foes="0110000011111000" cont="0"/>
        <request index="11" response="0000000000000110" foes="1110000010000110" cont="0"/>
        <request index="12" response="0000000000000110" foes="0000000000000110" cont="0"/>
        <request index="13" response="0000111100000110" foes="0000111110000110" cont="0"/>
        <request index="14" response="0000111100000110" foes="0000111110000110" cont="0"/>
        <request index="15" response="0000100001101110" foes="0000100001101110" cont="0"/>
    </junction>

    <connection from="CtoE" to="EtoC" fromLane="2" toLane="2" via=":2_0_0" dir="t" state="M"/>
    <connection from="CtoN" to="NtoC" fromLane="2" toLane="2" via=":4_0_0" dir="t" state="M"/>
    <connection from="CtoS" to="StoC" fromLane="2" toLane="2" via=":3_0_0" dir="t" state="M"/>
    <connection from="CtoW" to="WtoC" fromLane="2" toLane="2" via=":1_0_0" dir="t" state="M"/>
    <connection from="EtoC" to="CtoN" fromLane="0" toLane="0" via=":node0_4_0" tl="node0" linkIndex="4" dir="r" state="o"/>
    <connection from="EtoC" to="CtoW" fromLane="0" toLane="0" via=":node0_5_0" tl="node0" linkIndex="5" dir="s" state="o"/>
    <connection from="EtoC" to="CtoW" fromLane="1" toLane="1" via=":node0_5_1" tl="node0" linkIndex="6" dir="s" state="o"/>
    <connection from="EtoC" to="CtoS" fromLane="2" toLane="2" via=":node0_7_0" tl="node0" linkIndex="7" dir="l" state="o"/>
    <connection from="NtoC" to="CtoW" fromLane="0" toLane="0" via=":node0_0_0" tl="node0" linkIndex="0" dir="r" state="O"/>
    <connection from="NtoC" to="CtoS" fromLane="0" toLane="0" via=":node0_1_0" tl="node0" linkIndex="1" dir="s" state="O"/>
    <connection from="NtoC" to="CtoS" fromLane="1" toLane="1" via=":node0_1_1" tl="node0" linkIndex="2" dir="s" state="O"/>
    <connection from="NtoC" to="CtoE" fromLane="2" toLane="2" via=":node0_3_0" tl="node0" linkIndex="3" dir="l" state="o"/>
    <connection from="StoC" to="CtoE" fromLane="0" toLane="0" via=":node0_8_0" tl="node0" linkIndex="8" dir="r" state="O"/>
    <connection from="StoC" to="CtoN" fromLane="0" toLane="0" via=":node0_9_0" tl="node0" linkIndex="9" dir="s" state="O"/>
    <connection from="StoC" to="CtoN" fromLane="1" toLane="1" via=":node0_9_1" tl="node0" linkIndex="10" dir="s" state="O"/>
    <connection from="StoC" to="CtoW" fromLane="2" toLane="2" via=":node0_11_0" tl="node0" linkIndex="11" dir="l" state="o"/>
    <connection from="WtoC" to="CtoS" fromLane="0" toLane="0" via=":node0_12_0" tl="node0" linkIndex="12" dir="r" state="o"/>
    <connection from="WtoC" to="CtoE" fromLane="0" toLane="0" via=":node0_13_0" tl="node0" linkIndex="13" dir="s" state="o"/>
    <connection from="WtoC" to="CtoE" fromLane="1" toLane="1" via=":node0_13_1" tl="node0" linkIndex="14" dir="s" state="o"/>
    <connection from="WtoC" to="CtoN" fromLane="2" toLane="2" via=":node0_15_0" tl="node0" linkIndex="15" dir="l" state="o"/>

    <connection from=":1_0" to="WtoC" fromLane="0" toLane="2" dir="t" state="M"/>
    <connection from=":2_0" to="EtoC" fromLane="0" toLane="2" dir="t" state="M"/>
    <connection from=":3_0" to="StoC" fromLane="0" toLane="2" dir="t" state="M"/>
    <connection from=":4_0" to="NtoC" fromLane="0" toLane="2" dir="t" state="M"/>
    <connection from=":node0_0" to="CtoW" fromLane="0" toLane="0" dir="r" state="M"/>
    <connection from=":node0_1" to="CtoS" fromLane="0" toLane="0" dir="s" state="M"/>
    <connection from=":node0_1" to="CtoS" fromLane="1" toLane="1" dir="s" state="M"/>
    <connection from=":node0_3" to="CtoE" fromLane="0" toLane="2" dir="l" state="M"/>
    <connection from=":node0_4" to="CtoN" fromLane="0" toLane="0" dir="r" state="M"/>
    <connection from=":node0_5" to="CtoW" fromLane="0" toLane="0" dir="s" state="M"/>
    <connection from=":node0_5" to="CtoW" fromLane="1" toLane="1" dir="s" state="M"/>
    <connection from=":node0_7" to="CtoS" fromLane="0" toLane="2" dir="l" state="M"/>
    <connection from=":node0_8" to="CtoE" fromLane="0" toLane="0" dir="r" state="M"/>
    <connection from=":node0_9" to="CtoN" fromLane="0" toLane="0" dir="s" state="M"/>
    <connection from=":node0_9" to="CtoN" fromLane="1" toLane="1" dir="s" state="M"/>
    <connection from=":node0_11" to="CtoW" fromLane="0" toLane="2" dir="l" state="M"/>
    <connection from=":node0_12" to="CtoS" fromLane="0" toLane="0" dir="r" state="M"/>
    <connection from=":node0_13" to="CtoE" fromLane="0" toLane="0" dir="s" state="M"/>
    <connection from=":node0_13" to="CtoE" fromLane="1" toLane="1" dir="s" state="M"/>
    <connection from=":node0_15" to="CtoN" fromLane="0" toLane="2" dir="l" state="M"/>

</net>
