<?xml version="1.0" encoding="UTF-8"?>

<!-- generated on 2020年07月16日 21時02分11秒 by Eclipse SUMO netedit Version 1.2.0
<configuration xmlns:xsi="http://www.w3.org/2001/XMLSchema-instance" xsi:noNamespaceSchemaLocation="http://sumo.dlr.de/xsd/netconvertConfiguration.xsd">

    <input>
        <sumo-net-file value="/home/vtoan/4th%20FDSE/multi-agent-TSC/network/4x1-one-way.net.xml"/>
    </input>

    <output>
        <output-file value="/home/vtoan/4th%20FDSE/multi-agent-TSC/network/4x1-one-way.net.xml"/>
    </output>

    <processing>
        <geometry.max-grade.fix value="false"/>
        <offset.disable-normalization value="true"/>
        <lefthand value="false"/>
    </processing>

    <junctions>
        <no-turnarounds value="true"/>
        <junctions.corner-detail value="0"/>
        <junctions.limit-turn-speed value="-1"/>
        <rectangular-lane-cut value="false"/>
    </junctions>

    <pedestrian>
        <walkingareas value="false"/>
    </pedestrian>

</configuration>
-->

<net version="1.1" xmlns:xsi="http://www.w3.org/2001/XMLSchema-instance" xsi:noNamespaceSchemaLocation="http://sumo.dlr.de/xsd/net_file.xsd">

    <location netOffset="300.00,300.00" convBoundary="0.00,8.13,1507.42,594.44" origBoundary="-310.00,-310.00,310.00,310.00" projParameter="!"/>

    <type id="come_out_of_junction" priority="46" numLanes="1" speed="11.11"/>
    <type id="come_out_of_rd" priority="40" numLanes="1" speed="11.11"/>
    <type id="go_in_to_junction" priority="78" numLanes="1" speed="19.44"/>

    <edge id=":3_0" function="internal">
        <lane id=":3_0_0" index="0" speed="13.89" length="5.84" width="4.00" shape="298.00,8.13 299.00,6.63 300.00,6.13 301.00,6.63 302.00,8.13"/>
    </edge>
    <edge id=":4_0" function="internal">
        <lane id=":4_0_0" index="0" speed="13.89" length="5.84" width="4.00" shape="302.00,593.50 301.00,595.00 300.00,595.50 299.00,595.00 298.00,593.50"/>
    </edge>
    <edge id=":node1_0" function="internal">
        <lane id=":node1_0_0" index="0" speed="13.89" length="24.00" width="4.00" shape="294.00,304.00 294.00,280.00"/>
        <lane id=":node1_0_1" index="1" speed="13.89" length="24.00" width="4.00" shape="298.00,304.00 298.00,280.00"/>
    </edge>
    <edge id=":node1_2" function="internal">
        <lane id=":node1_2_0" index="0" speed="13.89" length="4.15" width="4.00" shape="298.00,304.00 298.88,301.38 300.00,300.57"/>
    </edge>
    <edge id=":node1_12" function="internal">
        <lane id=":node1_12_0" index="0" speed="13.89" length="12.50" width="4.00" shape="300.00,300.57 301.50,299.50 305.88,298.38 312.00,298.00"/>
    </edge>
    <edge id=":node1_3" function="internal">
        <lane id=":node1_3_0" index="0" speed="13.89" length="9.68" width="4.00" shape="306.00,280.00 306.38,282.62 307.50,284.50 309.38,285.62 312.00,286.00"/>
    </edge>
    <edge id=":node1_4" function="internal">
        <lane id=":node1_4_0" index="0" speed="13.89" length="24.00" width="4.00" shape="306.00,280.00 306.00,304.00"/>
        <lane id=":node1_4_1" index="1" speed="13.89" length="24.00" width="4.00" shape="302.00,280.00 302.00,304.00"/>
    </edge>
    <edge id=":node1_6" function="internal">
        <lane id=":node1_6_0" index="0" speed="13.89" length="9.68" width="4.00" shape="288.00,286.00 290.62,285.62 292.50,284.50 293.62,282.62 294.00,280.00"/>
    </edge>
    <edge id=":node1_7" function="internal">
        <lane id=":node1_7_0" index="0" speed="13.89" length="24.00" width="4.00" shape="288.00,286.00 312.00,286.00"/>
        <lane id=":node1_7_1" index="1" speed="13.89" length="24.00" width="4.00" shape="288.00,290.00 312.00,290.00"/>
        <lane id=":node1_7_2" index="2" speed="13.89" length="24.00" width="4.00" shape="288.00,294.00 312.00,294.00"/>
        <lane id=":node1_7_3" index="3" speed="13.89" length="24.00" width="4.00" shape="288.00,298.00 312.00,298.00"/>
    </edge>
    <edge id=":node1_11" function="internal">
        <lane id=":node1_11_0" index="0" speed="13.89" length="16.65" width="4.00" shape="288.00,298.00 294.12,298.38 298.50,299.50 301.12,301.38 302.00,304.00"/>
    </edge>
    <edge id=":node2_0" function="internal">
        <lane id=":node2_0_0" index="0" speed="13.89" length="24.00" width="4.00" shape="594.00,304.00 594.00,280.00"/>
        <lane id=":node2_0_1" index="1" speed="13.89" length="24.00" width="4.00" shape="598.00,304.01 598.00,280.00"/>
    </edge>
    <edge id=":node2_2" function="internal">
        <lane id=":node2_2_0" index="0" speed="13.89" length="4.15" width="4.00" shape="598.00,304.01 598.87,301.38 600.00,300.58"/>
    </edge>
    <edge id=":node2_12" function="internal">
        <lane id=":node2_12_0" index="0" speed="13.89" length="12.50" width="4.00" shape="600.00,300.58 601.50,299.50 605.88,298.38 612.00,298.00"/>
    </edge>
    <edge id=":node2_3" function="internal">
        <lane id=":node2_3_0" index="0" speed="13.89" length="9.68" width="4.00" shape="606.00,280.00 606.38,282.63 607.50,284.50 609.38,285.63 612.00,286.00"/>
    </edge>
    <edge id=":node2_4" function="internal">
        <lane id=":node2_4_0" index="0" speed="13.89" length="24.01" width="4.00" shape="606.00,280.00 606.00,304.01"/>
        <lane id=":node2_4_1" index="1" speed="13.89" length="24.01" width="4.00" shape="602.00,280.00 602.00,304.01"/>
    </edge>
    <edge id=":node2_6" function="internal">
        <lane id=":node2_6_0" index="0" speed="13.89" length="9.68" width="4.00" shape="588.00,286.00 590.63,285.62 592.50,284.50 593.63,282.62 594.00,280.00"/>
    </edge>
    <edge id=":node2_7" function="internal">
        <lane id=":node2_7_0" index="0" speed="13.89" length="24.00" width="4.00" shape="588.00,286.00 612.00,286.00"/>
        <lane id=":node2_7_1" index="1" speed="13.89" length="24.00" width="4.00" shape="588.00,290.00 612.00,290.00"/>
        <lane id=":node2_7_2" index="2" speed="13.89" length="24.00" width="4.00" shape="588.00,294.00 612.00,294.00"/>
        <lane id=":node2_7_3" index="3" speed="13.89" length="24.00" width="4.00" shape="588.00,298.00 612.00,298.00"/>
    </edge>
    <edge id=":node2_11" function="internal">
        <lane id=":node2_11_0" index="0" speed="13.89" length="16.65" width="4.00" shape="588.00,298.00 594.13,298.38 598.50,299.50 601.12,301.38 602.00,304.01"/>
    </edge>
    <edge id=":node3_0" function="internal">
        <lane id=":node3_0_0" index="0" speed="13.89" length="24.01" width="4.00" shape="886.54,304.01 886.55,280.00"/>
        <lane id=":node3_0_1" index="1" speed="13.89" length="24.01" width="4.00" shape="890.54,304.01 890.55,280.01"/>
    </edge>
    <edge id=":node3_2" function="internal">
        <lane id=":node3_2_0" index="0" speed="13.89" length="4.15" width="4.00" shape="890.54,304.01 891.42,301.39 892.54,300.58"/>
    </edge>
    <edge id=":node3_12" function="internal">
        <lane id=":node3_12_0" index="0" speed="13.89" length="12.50" width="4.00" shape="892.54,300.58 894.04,299.51 898.42,298.39 904.55,298.01"/>
    </edge>
    <edge id=":node3_3" function="internal">
        <lane id=":node3_3_0" index="0" speed="13.89" length="9.68" width="4.00" shape="898.55,280.01 898.92,282.63 900.05,284.51 901.92,285.64 904.55,286.01"/>
    </edge>
    <edge id=":node3_4" function="internal">
        <lane id=":node3_4_0" index="0" speed="13.89" length="24.00" width="4.00" shape="898.55,280.01 898.54,304.01"/>
        <lane id=":node3_4_1" index="1" speed="13.89" length="24.00" width="4.00" shape="894.55,280.01 894.54,304.01"/>
    </edge>
    <edge id=":node3_6" function="internal">
        <lane id=":node3_6_0" index="0" speed="13.89" length="9.69" width="4.00" shape="880.54,286.01 883.17,285.63 885.05,284.51 886.17,282.63 886.55,280.00"/>
    </edge>
    <edge id=":node3_7" function="internal">
        <lane id=":node3_7_0" index="0" speed="13.89" length="24.01" width="4.00" shape="880.54,286.01 904.55,286.01"/>
        <lane id=":node3_7_1" index="1" speed="13.89" length="24.01" width="4.00" shape="880.54,290.01 904.55,290.01"/>
        <lane id=":node3_7_2" index="2" speed="13.89" length="24.01" width="4.00" shape="880.54,294.01 904.55,294.01"/>
        <lane id=":node3_7_3" index="3" speed="13.89" length="24.01" width="4.00" shape="880.54,298.01 904.55,298.01"/>
    </edge>
    <edge id=":node3_11" function="internal">
        <lane id=":node3_11_0" index="0" speed="13.89" length="16.65" width="4.00" shape="880.54,298.01 886.66,298.38 891.04,299.51 893.67,301.39 894.54,304.01"/>
    </edge>
    <edge id=":node4_0" function="internal">
        <lane id=":node4_0_0" index="0" speed="13.89" length="24.00" width="4.00" shape="1164.11,304.02 1164.10,280.02"/>
        <lane id=":node4_0_1" index="1" speed="13.89" length="24.00" width="4.00" shape="1168.11,304.02 1168.10,280.02"/>
    </edge>
    <edge id=":node4_2" function="internal">
        <lane id=":node4_2_0" index="0" speed="13.89" length="4.15" width="4.00" shape="1168.11,304.02 1168.98,301.40 1170.11,300.59"/>
    </edge>
    <edge id=":node4_12" function="internal">
        <lane id=":node4_12_0" index="0" speed="13.89" length="12.50" width="4.00" shape="1170.11,300.59 1171.61,299.52 1175.98,298.39 1182.11,298.02"/>
    </edge>
    <edge id=":node4_3" function="internal">
        <lane id=":node4_3_0" index="0" speed="13.89" length="9.68" width="4.00" shape="1176.10,280.01 1176.48,282.64 1177.60,284.52 1179.48,285.64 1182.10,286.02"/>
    </edge>
    <edge id=":node4_4" function="internal">
        <lane id=":node4_4_0" index="0" speed="13.89" length="24.01" width="4.00" shape="1176.10,280.01 1176.11,304.02"/>
        <lane id=":node4_4_1" index="1" speed="13.89" length="24.01" width="4.00" shape="1172.10,280.02 1172.11,304.02"/>
    </edge>
    <edge id=":node4_6" function="internal">
        <lane id=":node4_6_0" index="0" speed="13.89" length="9.68" width="4.00" shape="1158.10,286.02 1160.73,285.64 1162.60,284.52 1163.73,282.64 1164.10,280.02"/>
    </edge>
    <edge id=":node4_7" function="internal">
        <lane id=":node4_7_0" index="0" speed="13.89" length="24.00" width="4.00" shape="1158.10,286.02 1182.10,286.02"/>
        <lane id=":node4_7_1" index="1" speed="13.89" length="24.00" width="4.00" shape="1158.10,290.02 1182.11,290.02"/>
        <lane id=":node4_7_2" index="2" speed="13.89" length="24.00" width="4.00" shape="1158.10,294.02 1182.11,294.02"/>
        <lane id=":node4_7_3" index="3" speed="13.89" length="24.00" width="4.00" shape="1158.10,298.02 1182.11,298.02"/>
    </edge>
    <edge id=":node4_11" function="internal">
        <lane id=":node4_11_0" index="0" speed="13.89" length="16.65" width="4.00" shape="1158.10,298.02 1164.23,298.39 1168.61,299.52 1171.23,301.40 1172.11,304.02"/>
    </edge>

    <edge id="0to1" from="1" to="node1" priority="-1" type="go_in_to_junction" length="150.00">
        <lane id="0to1_0" index="0" speed="13.89" length="150.00" width="4.00" shape="0.00,286.00 288.00,286.00"/>
        <lane id="0to1_1" index="1" speed="13.89" length="150.00" width="4.00" shape="0.00,290.00 288.00,290.00"/>
        <lane id="0to1_2" index="2" speed="13.89" length="150.00" width="4.00" shape="0.00,294.00 288.00,294.00"/>
        <lane id="0to1_3" index="3" speed="13.89" length="150.00" width="4.00" shape="0.00,298.00 288.00,298.00"/>
    </edge>
    <edge id="1to2" from="node1" to="node2" priority="-1" type="come_out_of_junction" length="150.00">
        <lane id="1to2_0" index="0" speed="13.89" length="150.00" width="4.00" shape="312.00,286.00 588.00,286.00"/>
        <lane id="1to2_1" index="1" speed="13.89" length="150.00" width="4.00" shape="312.00,290.00 588.00,290.00"/>
        <lane id="1to2_2" index="2" speed="13.89" length="150.00" width="4.00" shape="312.00,294.00 588.00,294.00"/>
        <lane id="1to2_3" index="3" speed="13.89" length="150.00" width="4.00" shape="312.00,298.00 588.00,298.00"/>
    </edge>
    <edge id="2to3" from="node2" to="node3" priority="-1" length="150.00">
        <lane id="2to3_0" index="0" speed="13.89" length="150.00" width="4.00" shape="612.00,286.00 880.54,286.01"/>
        <lane id="2to3_1" index="1" speed="13.89" length="150.00" width="4.00" shape="612.00,290.00 880.54,290.01"/>
        <lane id="2to3_2" index="2" speed="13.89" length="150.00" width="4.00" shape="612.00,294.00 880.54,294.01"/>
        <lane id="2to3_3" index="3" speed="13.89" length="150.00" width="4.00" shape="612.00,298.00 880.54,298.01"/>
    </edge>
    <edge id="3to4" from="node3" to="node4" priority="-1" length="150.00">
        <lane id="3to4_0" index="0" speed="13.89" length="150.00" width="4.00" shape="904.55,286.01 1158.10,286.02"/>
        <lane id="3to4_1" index="1" speed="13.89" length="150.00" width="4.00" shape="904.55,290.01 1158.10,290.02"/>
        <lane id="3to4_2" index="2" speed="13.89" length="150.00" width="4.00" shape="904.55,294.01 1158.10,294.02"/>
        <lane id="3to4_3" index="3" speed="13.89" length="150.00" width="4.00" shape="904.55,298.01 1158.10,298.02"/>
    </edge>
    <edge id="4to5" from="node4" to="5" priority="-1" length="150.00">
        <lane id="4to5_0" index="0" speed="13.89" length="150.00" width="4.00" shape="1182.10,286.02 1507.41,285.88"/>
        <lane id="4to5_1" index="1" speed="13.89" length="150.00" width="4.00" shape="1182.11,290.02 1507.42,289.88"/>
        <lane id="4to5_2" index="2" speed="13.89" length="150.00" width="4.00" shape="1182.11,294.02 1507.42,293.88"/>
        <lane id="4to5_3" index="3" speed="13.89" length="150.00" width="4.00" shape="1182.11,298.02 1507.42,297.88"/>
    </edge>
    <edge id="CtoN_1" from="node1" to="4" priority="46" type="come_out_of_junction" length="150.00">
        <lane id="CtoN_1_0" index="0" speed="13.89" length="150.00" width="4.00" shape="306.00,304.00 306.00,593.50"/>
        <lane id="CtoN_1_1" index="1" speed="13.89" length="150.00" width="4.00" shape="302.00,304.00 302.00,593.50"/>
    </edge>
    <edge id="CtoN_2" from="node2" to="gneJ9" priority="-1" length="150.00">
        <lane id="CtoN_2_0" index="0" speed="13.89" length="150.00" width="4.00" shape="606.00,304.01 605.73,594.45"/>
        <lane id="CtoN_2_1" index="1" speed="13.89" length="150.00" width="4.00" shape="602.00,304.01 601.73,594.44"/>
    </edge>
    <edge id="CtoN_3" from="node3" to="gneJ11" priority="-1" length="150.00">
        <lane id="CtoN_3_0" index="0" speed="13.89" length="150.00" width="4.00" shape="898.54,304.01 898.57,579.21"/>
        <lane id="CtoN_3_1" index="1" speed="13.89" length="150.00" width="4.00" shape="894.54,304.01 894.57,579.21"/>
    </edge>
    <edge id="CtoN_4" from="node4" to="gneJ18" priority="-1" length="150.00">
        <lane id="CtoN_4_0" index="0" speed="13.89" length="150.00" width="4.00" shape="1176.11,304.02 1176.06,579.74"/>
        <lane id="CtoN_4_1" index="1" speed="13.89" length="150.00" width="4.00" shape="1172.11,304.02 1172.06,579.74"/>
    </edge>
    <edge id="CtoS_1" from="node1" to="3" priority="46" type="come_out_of_junction" length="150.00">
        <lane id="CtoS_1_0" index="0" speed="13.89" length="150.00" width="4.00" shape="294.00,280.00 294.00,8.13"/>
        <lane id="CtoS_1_1" index="1" speed="13.89" length="150.00" width="4.00" shape="298.00,280.00 298.00,8.13"/>
    </edge>
    <edge id="CtoS_2" from="node2" to="gneJ7" priority="-1" length="150.00">
        <lane id="CtoS_2_0" index="0" speed="13.89" length="150.00" width="4.00" shape="594.00,280.00 594.02,14.19"/>
        <lane id="CtoS_2_1" index="1" speed="13.89" length="150.00" width="4.00" shape="598.00,280.00 598.02,14.19"/>
    </edge>
    <edge id="CtoS_3" from="node3" to="gneJ10" priority="-1" length="150.00">
        <lane id="CtoS_3_0" index="0" speed="13.89" length="150.00" width="4.00" shape="886.55,280.00 886.66,22.62"/>
        <lane id="CtoS_3_1" index="1" speed="13.89" length="150.00" width="4.00" shape="890.55,280.01 890.66,22.62"/>
    </edge>
    <edge id="CtoS_4" from="node4" to="gneJ13" priority="-1" length="150.00" shape="1170.11,300.02 1170.03,129.84 1169.97,20.20">
        <lane id="CtoS_4_0" index="0" speed="13.89" length="150.00" width="4.00" shape="1164.10,280.02 1164.03,129.84 1163.97,20.20"/>
        <lane id="CtoS_4_1" index="1" speed="13.89" length="150.00" width="4.00" shape="1168.10,280.02 1168.03,129.84 1167.97,20.20"/>
    </edge>
    <edge id="NtoC_1" from="4" to="node1" priority="78" type="go_in_to_junction" length="150.00">
        <lane id="NtoC_1_0" index="0" speed="13.89" length="150.00" width="4.00" shape="294.00,593.50 294.00,304.00"/>
        <lane id="NtoC_1_1" index="1" speed="13.89" length="150.00" width="4.00" shape="298.00,593.50 298.00,304.00"/>
    </edge>
    <edge id="NtoC_2" from="gneJ9" to="node2" priority="-1" length="150.00">
        <lane id="NtoC_2_0" index="0" speed="13.89" length="150.00" width="4.00" shape="593.73,594.43 594.00,304.00"/>
        <lane id="NtoC_2_1" index="1" speed="13.89" length="150.00" width="4.00" shape="597.73,594.44 598.00,304.01"/>
    </edge>
    <edge id="NtoC_3" from="gneJ11" to="node3" priority="-1" length="150.00">
        <lane id="NtoC_3_0" index="0" speed="13.89" length="150.00" width="4.00" shape="886.57,579.21 886.54,304.01"/>
        <lane id="NtoC_3_1" index="1" speed="13.89" length="150.00" width="4.00" shape="890.57,579.21 890.54,304.01"/>
    </edge>
    <edge id="NtoC_4" from="gneJ18" to="node4" priority="-1" length="150.00">
        <lane id="NtoC_4_0" index="0" speed="13.89" length="150.00" width="4.00" shape="1164.06,579.74 1164.11,304.02"/>
        <lane id="NtoC_4_1" index="1" speed="13.89" length="150.00" width="4.00" shape="1168.06,579.74 1168.11,304.02"/>
    </edge>
    <edge id="StoC_1" from="3" to="node1" priority="78" type="go_in_to_junction" length="150.00">
        <lane id="StoC_1_0" index="0" speed="13.89" length="150.00" width="4.00" shape="306.00,8.13 306.00,280.00"/>
        <lane id="StoC_1_1" index="1" speed="13.89" length="150.00" width="4.00" shape="302.00,8.13 302.00,280.00"/>
    </edge>
    <edge id="StoC_2" from="gneJ7" to="node2" priority="-1" length="150.00">
        <lane id="StoC_2_0" index="0" speed="13.89" length="150.00" width="4.00" shape="606.02,14.19 606.00,280.00"/>
        <lane id="StoC_2_1" index="1" speed="13.89" length="150.00" width="4.00" shape="602.02,14.19 602.00,280.00"/>
    </edge>
    <edge id="StoC_3" from="gneJ10" to="node3" priority="-1" length="150.00">
        <lane id="StoC_3_0" index="0" speed="13.89" length="150.00" width="4.00" shape="898.66,22.62 898.55,280.01"/>
        <lane id="StoC_3_1" index="1" speed="13.89" length="150.00" width="4.00" shape="894.66,22.62 894.55,280.01"/>
    </edge>
    <edge id="StoC_4" from="gneJ13" to="node4" priority="-1" length="150.00" shape="1169.97,20.20 1170.03,129.84 1170.11,300.02">
        <lane id="StoC_4_0" index="0" speed="13.89" length="150.00" width="4.00" shape="1175.97,20.20 1176.03,129.84 1176.10,280.01"/>
        <lane id="StoC_4_1" index="1" speed="13.89" length="150.00" width="4.00" shape="1171.97,20.20 1172.03,129.84 1172.10,280.02"/>
    </edge>

    <tlLogic id="node1" type="static" programID="0" offset="0">
        <phase duration="1000000" state="GGgGGGrrrrrr"/>
        <phase duration="1000000" state="yyyyyyrrrrrr"/>
        <phase duration="1000000" state="rrrrrrGGGGGG"/>
        <phase duration="1000000" state="rrrrrryyyyyy"/>
    </tlLogic>
    <tlLogic id="node2" type="static" programID="0" offset="0">
        <phase duration="1000000" state="GGgGGGrrrrrr"/>
        <phase duration="1000000" state="yyyyyyrrrrrr"/>
        <phase duration="1000000" state="rrrrrrGGGGGG"/>
        <phase duration="1000000" state="rrrrrryyyyyy"/>
    </tlLogic>
    <tlLogic id="node3" type="static" programID="0" offset="0">
        <phase duration="1000000" state="GGgGGGrrrrrr"/>
        <phase duration="1000000" state="yyyyyyrrrrrr"/>
        <phase duration="1000000" state="rrrrrrGGGGGG"/>
        <phase duration="1000000" state="rrrrrryyyyyy"/>
    </tlLogic>
    <tlLogic id="node4" type="static" programID="0" offset="0">
        <phase duration="1000000" state="GGgGGGrrrrrr"/>
        <phase duration="1000000" state="yyyyyyrrrrrr"/>
        <phase duration="1000000" state="rrrrrrGGGGGG"/>
        <phase duration="1000000" state="rrrrrryyyyyy"/>
    </tlLogic>

    <junction id="1" type="dead_end" x="0.00" y="300.00" incLanes="" intLanes="" shape="0.00,300.00 0.00,284.00"/>
    <junction id="3" type="priority" x="300.00" y="8.13" incLanes="CtoS_1_0 CtoS_1_1" intLanes=":3_0_0" shape="300.00,8.13 292.00,8.13 300.00,8.13">
        <request index="0" response="0" foes="0" cont="0"/>
    </junction>
    <junction id="4" type="priority" x="300.00" y="593.50" incLanes="CtoN_1_0 CtoN_1_1" intLanes=":4_0_0" shape="300.00,593.50 308.00,593.50 300.00,593.50">
        <request index="0" response="0" foes="0" cont="0"/>
    </junction>
    <junction id="5" type="dead_end" x="1507.42" y="299.88" incLanes="4to5_0 4to5_1 4to5_2 4to5_3" intLanes="" shape="1507.41,283.88 1507.42,299.88"/>
    <junction id="gneJ10" type="dead_end" x="892.66" y="22.62" incLanes="CtoS_3_0 CtoS_3_1" intLanes="" shape="892.66,22.62 884.66,22.62 892.66,22.62"/>
    <junction id="gneJ11" type="dead_end" x="892.57" y="579.21" incLanes="CtoN_3_0 CtoN_3_1" intLanes="" shape="892.57,579.21 900.57,579.21 892.57,579.21"/>
    <junction id="gneJ13" type="dead_end" x="1169.97" y="20.20" incLanes="CtoS_4_0 CtoS_4_1" intLanes="" shape="1169.97,20.20 1161.97,20.20 1169.97,20.20"/>
    <junction id="gneJ18" type="dead_end" x="1170.06" y="579.74" incLanes="CtoN_4_0 CtoN_4_1" intLanes="" shape="1170.06,579.74 1178.06,579.74 1170.06,579.74"/>
    <junction id="gneJ7" type="dead_end" x="600.02" y="14.19" incLanes="CtoS_2_0 CtoS_2_1" intLanes="" shape="600.02,14.19 592.02,14.19 600.02,14.19"/>
    <junction id="gneJ9" type="dead_end" x="599.73" y="594.44" incLanes="CtoN_2_0 CtoN_2_1" intLanes="" shape="599.73,594.44 607.73,594.45 599.73,594.44"/>
    <junction id="node1" type="traffic_light" x="300.00" y="300.00" incLanes="NtoC_1_0 NtoC_1_1 StoC_1_0 StoC_1_1 0to1_0 0to1_1 0to1_2 0to1_3" intLanes=":node1_0_0 :node1_0_1 :node1_12_0 :node1_3_0 :node1_4_0 :node1_4_1 :node1_6_0 :node1_7_0 :node1_7_1 :node1_7_2 :node1_7_3 :node1_11_0" shape="292.00,304.00 308.00,304.00 312.00,300.00 312.00,284.00 308.00,280.00 292.00,280.00 288.00,284.00 288.00,300.00">
        <request index="0"  response="000000000000" foes="111111000000" cont="0"/>
        <request index="1"  response="000000000000" foes="111111000000" cont="0"/>
        <request index="2"  response="000000110000" foes="111110110000" cont="1"/>
        <request index="3"  response="000000000000" foes="011110000000" cont="0"/>
        <request index="4"  response="000000000000" foes="111110000100" cont="0"/>
        <request index="5"  response="000000000000" foes="111110000100" cont="0"/>
        <request index="6"  response="000000000011" foes="000000000011" cont="0"/>
        <request index="7"  response="000000111111" foes="000000111111" cont="0"/>
        <request index="8"  response="000000111111" foes="000000111111" cont="0"/>
        <request index="9"  response="000000111111" foes="000000111111" cont="0"/>
        <request index="10" response="000000111111" foes="000000111111" cont="0"/>
        <request index="11" response="000000110111" foes="000000110111" cont="0"/>
    </junction>
    <junction id="node2" type="traffic_light" x="600.00" y="300.00" incLanes="NtoC_2_0 NtoC_2_1 StoC_2_0 StoC_2_1 1to2_0 1to2_1 1to2_2 1to2_3" intLanes=":node2_0_0 :node2_0_1 :node2_12_0 :node2_3_0 :node2_4_0 :node2_4_1 :node2_6_0 :node2_7_0 :node2_7_1 :node2_7_2 :node2_7_3 :node2_11_0" shape="592.00,304.00 608.00,304.01 612.00,300.00 612.00,284.00 608.00,280.00 592.00,280.00 588.00,284.00 588.00,300.00">
        <request index="0"  response="111111000000" foes="111111000000" cont="0"/>
        <request index="1"  response="111111000000" foes="111111000000" cont="0"/>
        <request index="2"  response="111110110000" foes="111110110000" cont="1"/>
        <request index="3"  response="011110000000" foes="011110000000" cont="0"/>
        <request index="4"  response="111110000000" foes="111110000100" cont="0"/>
        <request index="5"  response="111110000000" foes="111110000100" cont="0"/>
        <request index="6"  response="000000000000" foes="000000000011" cont="0"/>
        <request index="7"  response="000000000100" foes="000000111111" cont="0"/>
        <request index="8"  response="000000000100" foes="000000111111" cont="0"/>
        <request index="9"  response="000000000100" foes="000000111111" cont="0"/>
        <request index="10" response="000000000100" foes="000000111111" cont="0"/>
        <request index="11" response="000000000100" foes="000000110111" cont="0"/>
    </junction>
    <junction id="node3" type="traffic_light" x="892.54" y="300.01" incLanes="NtoC_3_0 NtoC_3_1 StoC_3_0 StoC_3_1 2to3_0 2to3_1 2to3_2 2to3_3" intLanes=":node3_0_0 :node3_0_1 :node3_12_0 :node3_3_0 :node3_4_0 :node3_4_1 :node3_6_0 :node3_7_0 :node3_7_1 :node3_7_2 :node3_7_3 :node3_11_0" shape="884.54,304.01 900.54,304.01 904.55,300.01 904.55,284.01 900.55,280.01 884.55,280.00 880.54,284.01 880.54,300.01">
        <request index="0"  response="111111000000" foes="111111000000" cont="0"/>
        <request index="1"  response="111111000000" foes="111111000000" cont="0"/>
        <request index="2"  response="111110110000" foes="111110110000" cont="1"/>
        <request index="3"  response="011110000000" foes="011110000000" cont="0"/>
        <request index="4"  response="111110000000" foes="111110000100" cont="0"/>
        <request index="5"  response="111110000000" foes="111110000100" cont="0"/>
        <request index="6"  response="000000000000" foes="000000000011" cont="0"/>
        <request index="7"  response="000000000100" foes="000000111111" cont="0"/>
        <request index="8"  response="000000000100" foes="000000111111" cont="0"/>
        <request index="9"  response="000000000100" foes="000000111111" cont="0"/>
        <request index="10" response="000000000100" foes="000000111111" cont="0"/>
        <request index="11" response="000000000100" foes="000000110111" cont="0"/>
    </junction>
    <junction id="node4" type="traffic_light" x="1170.11" y="300.02" incLanes="NtoC_4_0 NtoC_4_1 StoC_4_0 StoC_4_1 3to4_0 3to4_1 3to4_2 3to4_3" intLanes=":node4_0_0 :node4_0_1 :node4_12_0 :node4_3_0 :node4_4_0 :node4_4_1 :node4_6_0 :node4_7_0 :node4_7_1 :node4_7_2 :node4_7_3 :node4_11_0" shape="1162.11,304.02 1178.11,304.02 1182.11,300.02 1182.10,284.02 1178.10,280.01 1162.10,280.02 1158.10,284.02 1158.10,300.02">
        <request index="0"  response="111111000000" foes="111111000000" cont="0"/>
        <request index="1"  response="111111000000" foes="111111000000" cont="0"/>
        <request index="2"  response="111110110000" foes="111110110000" cont="1"/>
        <request index="3"  response="011110000000" foes="011110000000" cont="0"/>
        <request index="4"  response="111110000000" foes="111110000100" cont="0"/>
        <request index="5"  response="111110000000" foes="111110000100" cont="0"/>
        <request index="6"  response="000000000000" foes="000000000011" cont="0"/>
        <request index="7"  response="000000000100" foes="000000111111" cont="0"/>
        <request index="8"  response="000000000100" foes="000000111111" cont="0"/>
        <request index="9"  response="000000000100" foes="000000111111" cont="0"/>
        <request index="10" response="000000000100" foes="000000111111" cont="0"/>
        <request index="11" response="000000000100" foes="000000110111" cont="0"/>
    </junction>

    <junction id=":node1_12_0" type="internal" x="300.00" y="300.57" incLanes=":node1_2_0 StoC_1_0 StoC_1_1" intLanes=":node1_3_0 :node1_4_0 :node1_4_1 :node1_7_0 :node1_7_1 :node1_7_2 :node1_7_3 :node1_11_0"/>
    <junction id=":node2_12_0" type="internal" x="600.00" y="300.58" incLanes=":node2_2_0 StoC_2_0 StoC_2_1" intLanes=":node2_3_0 :node2_4_0 :node2_4_1 :node2_7_0 :node2_7_1 :node2_7_2 :node2_7_3 :node2_11_0"/>
    <junction id=":node3_12_0" type="internal" x="892.54" y="300.58" incLanes=":node3_2_0 StoC_3_0 StoC_3_1" intLanes=":node3_3_0 :node3_4_0 :node3_4_1 :node3_7_0 :node3_7_1 :node3_7_2 :node3_7_3 :node3_11_0"/>
    <junction id=":node4_12_0" type="internal" x="1170.11" y="300.59" incLanes=":node4_2_0 StoC_4_0 StoC_4_1" intLanes=":node4_3_0 :node4_4_0 :node4_4_1 :node4_7_0 :node4_7_1 :node4_7_2 :node4_7_3 :node4_11_0"/>

    <connection from="0to1" to="CtoS_1" fromLane="0" toLane="0" via=":node1_6_0" tl="node1" linkIndex="6" dir="r" state="o"/>
    <connection from="0to1" to="1to2" fromLane="0" toLane="0" via=":node1_7_0" tl="node1" linkIndex="7" dir="s" state="o"/>
    <connection from="0to1" to="1to2" fromLane="1" toLane="1" via=":node1_7_1" tl="node1" linkIndex="8" dir="s" state="o"/>
    <connection from="0to1" to="1to2" fromLane="2" toLane="2" via=":node1_7_2" tl="node1" linkIndex="9" dir="s" state="o"/>
    <connection from="0to1" to="1to2" fromLane="3" toLane="3" via=":node1_7_3" tl="node1" linkIndex="10" dir="s" state="o"/>
    <connection from="0to1" to="CtoN_1" fromLane="3" toLane="1" via=":node1_11_0" tl="node1" linkIndex="11" dir="l" state="o"/>
    <connection from="1to2" to="CtoS_2" fromLane="0" toLane="0" via=":node2_6_0" tl="node2" linkIndex="6" dir="r" state="O"/>
    <connection from="1to2" to="2to3" fromLane="0" toLane="0" via=":node2_7_0" tl="node2" linkIndex="7" dir="s" state="O"/>
    <connection from="1to2" to="2to3" fromLane="1" toLane="1" via=":node2_7_1" tl="node2" linkIndex="8" dir="s" state="O"/>
    <connection from="1to2" to="2to3" fromLane="2" toLane="2" via=":node2_7_2" tl="node2" linkIndex="9" dir="s" state="O"/>
    <connection from="1to2" to="2to3" fromLane="3" toLane="3" via=":node2_7_3" tl="node2" linkIndex="10" dir="s" state="O"/>
    <connection from="1to2" to="CtoN_2" fromLane="3" toLane="1" via=":node2_11_0" tl="node2" linkIndex="11" dir="l" state="O"/>