<?xml version="1.0" encoding="UTF-8"?>

<!-- generated on Thứ bảy, 18 Tháng 7 Năm 2020 09:24:25 +07 by Eclipse SUMO netedit Version 1.4.0
<configuration xmlns:xsi="http://www.w3.org/2001/XMLSchema-instance" xsi:noNamespaceSchemaLocation="http://sumo.dlr.de/xsd/netconvertConfiguration.xsd">

    <input>
        <sumo-net-file value="/home/vtoan/Thesis/Arterial%20road%20FDSE/FT_OFFSET/network/4x2-intersections.net.xml"/>
    </input>

    <output>
        <output-file value="/home/vtoan/Thesis/Arterial%20road%20FDSE/FT_OFFSET/network/4x2-intersections.net.xml"/>
    </output>

    <processing>
        <geometry.min-radius.fix.railways value="false"/>
        <geometry.max-grade.fix value="false"/>
        <offset.disable-normalization value="true"/>
        <lefthand value="false"/>
    </processing>

    <junctions>
        <no-turnarounds value="true"/>
        <junctions.corner-detail value="0"/>
        <junctions.limit-turn-speed value="-1"/>
        <rectangular-lane-cut value="false"/>
    </junctions>

    <pedestrian>
        <walkingareas value="false"/>
    </pedestrian>

    <report>
        <aggregate-warnings value="5"/>
    </report>

</configuration>
-->

<net version="1.3" xmlns:xsi="http://www.w3.org/2001/XMLSchema-instance" xsi:noNamespaceSchemaLocation="http://sumo.dlr.de/xsd/net_file.xsd">

    <location netOffset="300.00,300.00" convBoundary="0.00,-258.66,1516.67,604.66" origBoundary="-310.00,-310.00,310.00,310.00" projParameter="!"/>

    <type id="come_out_of_junction" priority="46" numLanes="1" speed="11.11"/>
    <type id="come_out_of_rd" priority="40" numLanes="1" speed="11.11"/>
    <type id="go_in_to_junction" priority="78" numLanes="1" speed="19.44"/>

    <edge id=":4_0" function="internal">
        <lane id=":4_0_0" index="0" speed="13.89" length="5.84" width="4.00" shape="302.00,593.50 301.00,595.00 300.00,595.50 299.00,595.00 298.00,593.50"/>
    </edge>
    <edge id=":node1A_0" function="internal">
        <lane id=":node1A_0_0" index="0" speed="13.89" length="24.00" width="4.00" shape="294.00,304.00 294.00,280.00"/>
        <lane id=":node1A_0_1" index="1" speed="13.89" length="24.00" width="4.00" shape="298.00,304.00 298.00,280.00"/>
    </edge>
    <edge id=":node1A_2" function="internal">
        <lane id=":node1A_2_0" index="0" speed="13.89" length="4.15" width="4.00" shape="298.00,304.00 298.88,301.38 300.00,300.57"/>
    </edge>
    <edge id=":node1A_12" function="internal">
        <lane id=":node1A_12_0" index="0" speed="13.89" length="12.50" width="4.00" shape="300.00,300.57 301.50,299.50 305.88,298.38 312.00,298.00"/>
    </edge>
    <edge id=":node1A_3" function="internal">
        <lane id=":node1A_3_0" index="0" speed="13.89" length="9.68" width="4.00" shape="306.00,280.00 306.38,282.62 307.50,284.50 309.38,285.62 312.00,286.00"/>
    </edge>
    <edge id=":node1A_4" function="internal">
        <lane id=":node1A_4_0" index="0" speed="13.89" length="24.00" width="4.00" shape="306.00,280.00 306.00,304.00"/>
        <lane id=":node1A_4_1" index="1" speed="13.89" length="24.00" width="4.00" shape="302.00,280.00 302.00,304.00"/>
    </edge>
    <edge id=":node1A_6" function="internal">
        <lane id=":node1A_6_0" index="0" speed="13.89" length="9.68" width="4.00" shape="288.00,286.00 290.62,285.62 292.50,284.50 293.62,282.62 294.00,280.00"/>
    </edge>
    <edge id=":node1A_7" function="internal">
        <lane id=":node1A_7_0" index="0" speed="13.89" length="24.00" width="4.00" shape="288.00,286.00 312.00,286.00"/>
        <lane id=":node1A_7_1" index="1" speed="13.89" length="24.00" width="4.00" shape="288.00,290.00 312.00,290.00"/>
        <lane id=":node1A_7_2" index="2" speed="13.89" length="24.00" width="4.00" shape="288.00,294.00 312.00,294.00"/>
        <lane id=":node1A_7_3" index="3" speed="13.89" length="24.00" width="4.00" shape="288.00,298.00 312.00,298.00"/>
    </edge>
    <edge id=":node1A_11" function="internal">
        <lane id=":node1A_11_0" index="0" speed="13.89" length="16.65" width="4.00" shape="288.00,298.00 294.12,298.38 298.50,299.50 301.12,301.38 302.00,304.00"/>
    </edge>
    <edge id=":node1B_0" function="internal">
        <lane id=":node1B_0_0" index="0" speed="13.89" length="9.68" width="4.00" shape="294.00,28.13 293.62,25.51 292.50,23.63 290.62,22.51 288.00,22.14"/>
    </edge>
    <edge id=":node1B_1" function="internal">
        <lane id=":node1B_1_0" index="0" speed="13.89" length="24.01" width="4.00" shape="294.00,28.13 294.00,4.12"/>
        <lane id=":node1B_1_1" index="1" speed="13.89" length="24.01" width="4.00" shape="298.00,28.13 298.00,4.12"/>
    </edge>
    <edge id=":node1B_3" function="internal">
        <lane id=":node1B_3_0" index="0" speed="13.89" length="9.68" width="4.00" shape="312.00,22.13 309.38,22.50 307.50,23.63 306.38,25.51 306.00,28.13"/>
    </edge>
    <edge id=":node1B_4" function="internal">
        <lane id=":node1B_4_0" index="0" speed="13.89" length="24.01" width="4.00" shape="312.00,22.13 288.00,22.14"/>
        <lane id=":node1B_4_1" index="1" speed="13.89" length="24.01" width="4.00" shape="312.00,18.13 288.00,18.14"/>
        <lane id=":node1B_4_2" index="2" speed="13.89" length="24.01" width="4.00" shape="312.00,14.13 287.99,14.14"/>
        <lane id=":node1B_4_3" index="3" speed="13.89" length="24.01" width="4.00" shape="312.00,10.13 287.99,10.14"/>
    </edge>
    <edge id=":node1B_8" function="internal">
        <lane id=":node1B_8_0" index="0" speed="13.89" length="16.65" width="4.00" shape="312.00,10.13 305.87,9.75 301.50,8.63 298.88,6.75 298.00,4.12"/>
    </edge>
    <edge id=":node1B_9" function="internal">
        <lane id=":node1B_9_0" index="0" speed="13.89" length="24.01" width="4.00" shape="306.00,4.13 306.00,28.13"/>
        <lane id=":node1B_9_1" index="1" speed="13.89" length="24.01" width="4.00" shape="302.00,4.12 302.00,28.13"/>
    </edge>
    <edge id=":node1B_11" function="internal">
        <lane id=":node1B_11_0" index="0" speed="13.89" length="4.15" width="4.00" shape="302.00,4.12 301.13,6.75 300.00,7.55"/>
    </edge>
    <edge id=":node1B_12" function="internal">
        <lane id=":node1B_12_0" index="0" speed="13.89" length="12.51" width="4.00" shape="300.00,7.55 298.50,8.63 294.12,9.76 287.99,10.14"/>
    </edge>
    <edge id=":node2A_0" function="internal">
        <lane id=":node2A_0_0" index="0" speed="13.89" length="24.00" width="4.00" shape="594.00,304.00 594.00,280.00"/>
        <lane id=":node2A_0_1" index="1" speed="13.89" length="24.00" width="4.00" shape="598.00,304.01 598.00,280.00"/>
    </edge>
    <edge id=":node2A_2" function="internal">
        <lane id=":node2A_2_0" index="0" speed="13.89" length="4.15" width="4.00" shape="598.00,304.01 598.87,301.38 600.00,300.58"/>
    </edge>
    <edge id=":node2A_12" function="internal">
        <lane id=":node2A_12_0" index="0" speed="13.89" length="12.50" width="4.00" shape="600.00,300.58 601.50,299.50 605.88,298.38 612.00,298.00"/>
    </edge>
    <edge id=":node2A_3" function="internal">
        <lane id=":node2A_3_0" index="0" speed="13.89" length="9.68" width="4.00" shape="606.00,280.00 606.38,282.63 607.50,284.50 609.38,285.63 612.00,286.00"/>
    </edge>
    <edge id=":node2A_4" function="internal">
        <lane id=":node2A_4_0" index="0" speed="13.89" length="24.01" width="4.00" shape="606.00,280.00 606.00,304.01"/>
        <lane id=":node2A_4_1" index="1" speed="13.89" length="24.01" width="4.00" shape="602.00,280.00 602.00,304.01"/>
    </edge>
    <edge id=":node2A_6" function="internal">
        <lane id=":node2A_6_0" index="0" speed="13.89" length="9.68" width="4.00" shape="588.00,286.00 590.63,285.62 592.50,284.50 593.63,282.62 594.00,280.00"/>
    </edge>
    <edge id=":node2A_7" function="internal">
        <lane id=":node2A_7_0" index="0" speed="13.89" length="24.00" width="4.00" shape="588.00,286.00 612.00,286.00"/>
        <lane id=":node2A_7_1" index="1" speed="13.89" length="24.00" width="4.00" shape="588.00,290.00 612.00,290.00"/>
        <lane id=":node2A_7_2" index="2" speed="13.89" length="24.00" width="4.00" shape="588.00,294.00 612.00,294.00"/>
        <lane id=":node2A_7_3" index="3" speed="13.89" length="24.00" width="4.00" shape="588.00,298.00 612.00,298.00"/>
    </edge>
    <edge id=":node2A_11" function="internal">
        <lane id=":node2A_11_0" index="0" speed="13.89" length="16.65" width="4.00" shape="588.00,298.00 594.13,298.38 598.50,299.50 601.12,301.38 602.00,304.01"/>
    </edge>
    <edge id=":node2B_0" function="internal">
        <lane id=":node2B_0_0" index="0" speed="13.89" length="9.68" width="4.00" shape="594.02,28.05 593.64,25.43 592.52,23.55 590.64,22.43 588.02,22.05"/>
    </edge>
    <edge id=":node2B_1" function="internal">
        <lane id=":node2B_1_0" index="0" speed="13.89" length="24.01" width="4.00" shape="594.02,28.05 594.02,4.04"/>
        <lane id=":node2B_1_1" index="1" speed="13.89" length="24.01" width="4.00" shape="598.02,28.05 598.02,4.05"/>
    </edge>
    <edge id=":node2B_3" function="internal">
        <lane id=":node2B_3_0" index="0" speed="13.89" length="9.69" width="4.00" shape="612.03,22.05 609.40,22.42 607.52,23.55 606.39,25.43 606.02,28.05"/>
    </edge>
    <edge id=":node2B_4" function="internal">
        <lane id=":node2B_4_0" index="0" speed="13.89" length="24.01" width="4.00" shape="612.03,22.05 588.02,22.05"/>
        <lane id=":node2B_4_1" index="1" speed="13.89" length="24.01" width="4.00" shape="612.02,18.05 588.02,18.05"/>
        <lane id=":node2B_4_2" index="2" speed="13.89" length="24.01" width="4.00" shape="612.02,14.05 588.02,14.05"/>
        <lane id=":node2B_4_3" index="3" speed="13.89" length="24.01" width="4.00" shape="612.02,10.05 588.02,10.05"/>
    </edge>
    <edge id=":node2B_8" function="internal">
        <lane id=":node2B_8_0" index="0" speed="13.89" length="16.65" width="4.00" shape="612.02,10.05 605.90,9.67 601.52,8.55 598.90,6.67 598.02,4.05"/>
    </edge>
    <edge id=":node2B_9" function="internal">
        <lane id=":node2B_9_0" index="0" speed="13.89" length="24.01" width="4.00" shape="606.02,4.05 606.02,28.05"/>
        <lane id=":node2B_9_1" index="1" speed="13.89" length="24.01" width="4.00" shape="602.02,4.05 602.02,28.05"/>
    </edge>
    <edge id=":node2B_11" function="internal">
        <lane id=":node2B_11_0" index="0" speed="13.89" length="4.15" width="4.00" shape="602.02,4.05 601.14,6.67 600.02,7.48"/>
    </edge>
    <edge id=":node2B_12" function="internal">
        <lane id=":node2B_12_0" index="0" speed="13.89" length="12.50" width="4.00" shape="600.02,7.48 598.52,8.55 594.14,9.68 588.02,10.05"/>
    </edge>
    <edge id=":node3A_0" function="internal">
        <lane id=":node3A_0_0" index="0" speed="13.89" length="24.00" width="4.00" shape="886.54,304.01 886.53,280.01"/>
        <lane id=":node3A_0_1" index="1" speed="13.89" length="24.00" width="4.00" shape="890.54,304.01 890.53,280.01"/>
    </edge>
    <edge id=":node3A_2" function="internal">
        <lane id=":node3A_2_0" index="0" speed="13.89" length="4.15" width="4.00" shape="890.54,304.01 891.42,301.39 892.54,300.58"/>
    </edge>
    <edge id=":node3A_12" function="internal">
        <lane id=":node3A_12_0" index="0" speed="13.89" length="12.50" width="4.00" shape="892.54,300.58 894.04,299.51 898.41,298.39 904.54,298.01"/>
    </edge>
    <edge id=":node3A_3" function="internal">
        <lane id=":node3A_3_0" index="0" speed="13.89" length="9.69" width="4.00" shape="898.53,280.00 898.91,282.63 900.03,284.51 901.91,285.63 904.54,286.01"/>
    </edge>
    <edge id=":node3A_4" function="internal">
        <lane id=":node3A_4_0" index="0" speed="13.89" length="24.01" width="4.00" shape="898.53,280.00 898.54,304.01"/>
        <lane id=":node3A_4_1" index="1" speed="13.89" length="24.01" width="4.00" shape="894.53,280.01 894.54,304.01"/>
    </edge>
    <edge id=":node3A_6" function="internal">
        <lane id=":node3A_6_0" index="0" speed="13.89" length="9.68" width="4.00" shape="880.53,286.01 883.16,285.63 885.03,284.51 886.16,282.63 886.53,280.01"/>
    </edge>
    <edge id=":node3A_7" function="internal">
        <lane id=":node3A_7_0" index="0" speed="13.89" length="24.01" width="4.00" shape="880.53,286.01 904.54,286.01"/>
        <lane id=":node3A_7_1" index="1" speed="13.89" length="24.01" width="4.00" shape="880.53,290.01 904.54,290.01"/>
        <lane id=":node3A_7_2" index="2" speed="13.89" length="24.01" width="4.00" shape="880.53,294.01 904.54,294.01"/>
        <lane id=":node3A_7_3" index="3" speed="13.89" length="24.01" width="4.00" shape="880.53,298.01 904.54,298.01"/>
    </edge>
    <edge id=":node3A_11" function="internal">
        <lane id=":node3A_11_0" index="0" speed="13.89" length="16.65" width="4.00" shape="880.53,298.01 886.66,298.38 891.04,299.51 893.66,301.39 894.54,304.01"/>
    </edge>
    <edge id=":node3B_0" function="internal">
        <lane id=":node3B_0_0" index="0" speed="13.89" length="9.68" width="4.00" shape="886.42,27.95 886.04,25.32 884.92,23.44 883.04,22.32 880.42,21.94"/>
    </edge>
    <edge id=":node3B_1" function="internal">
        <lane id=":node3B_1_0" index="0" speed="13.89" length="24.01" width="4.00" shape="886.42,27.95 886.41,3.93"/>
        <lane id=":node3B_1_1" index="1" speed="13.89" length="24.01" width="4.00" shape="890.42,27.94 890.41,3.93"/>
    </edge>
    <edge id=":node3B_3" function="internal">
        <lane id=":node3B_3_0" index="0" speed="13.89" length="9.68" width="4.00" shape="904.42,21.94 901.79,22.32 899.92,23.44 898.79,25.32 898.42,27.94"/>
    </edge>
    <edge id=":node3B_4" function="internal">
        <lane id=":node3B_4_0" index="0" speed="13.89" length="24.00" width="4.00" shape="904.42,21.94 880.42,21.94"/>
        <lane id=":node3B_4_1" index="1" speed="13.89" length="24.00" width="4.00" shape="904.42,17.94 880.41,17.94"/>
        <lane id=":node3B_4_2" index="2" speed="13.89" length="24.00" width="4.00" shape="904.42,13.94 880.41,13.94"/>
        <lane id=":node3B_4_3" index="3" speed="13.89" length="24.00" width="4.00" shape="904.42,9.94 880.41,9.94"/>
    </edge>
    <edge id=":node3B_8" function="internal">
        <lane id=":node3B_8_0" index="0" speed="13.89" length="16.66" width="4.00" shape="904.42,9.94 898.29,9.56 893.91,8.44 891.29,6.56 890.41,3.93"/>
    </edge>
    <edge id=":node3B_9" function="internal">
        <lane id=":node3B_9_0" index="0" speed="13.89" length="24.00" width="4.00" shape="898.41,3.94 898.42,27.94"/>
        <lane id=":node3B_9_1" index="1" speed="13.89" length="24.00" width="4.00" shape="894.41,3.94 894.42,27.94"/>
    </edge>
    <edge id=":node3B_11" function="internal">
        <lane id=":node3B_11_0" index="0" speed="13.89" length="4.15" width="4.00" shape="894.41,3.94 893.54,6.56 892.41,7.37"/>
    </edge>
    <edge id=":node3B_12" function="internal">
        <lane id=":node3B_12_0" index="0" speed="13.89" length="12.50" width="4.00" shape="892.41,7.37 890.91,8.44 886.54,9.57 880.41,9.94"/>
    </edge>
    <edge id=":node4A_0" function="internal">
        <lane id=":node4A_0_0" index="0" speed="13.89" length="24.00" width="4.00" shape="1164.11,304.02 1164.10,280.02"/>
        <lane id=":node4A_0_1" index="1" speed="13.89" length="24.00" width="4.00" shape="1168.11,304.02 1168.10,280.02"/>
    </edge>
    <edge id=":node4A_2" function="internal">
        <lane id=":node4A_2_0" index="0" speed="13.89" length="4.15" width="4.00" shape="1168.11,304.02 1168.98,301.40 1170.11,300.59"/>
    </edge>
    <edge id=":node4A_12" function="internal">
        <lane id=":node4A_12_0" index="0" speed="13.89" length="12.50" width="4.00" shape="1170.11,300.59 1171.61,299.52 1175.98,298.39 1182.11,298.02"/>
    </edge>
    <edge id=":node4A_3" function="internal">
        <lane id=":node4A_3_0" index="0" speed="13.89" length="9.68" width="4.00" shape="1176.10,280.01 1176.48,282.64 1177.60,284.52 1179.48,285.64 1182.10,286.02"/>
    </edge>
    <edge id=":node4A_4" function="internal">
        <lane id=":node4A_4_0" index="0" speed="13.89" length="24.01" width="4.00" shape="1176.10,280.01 1176.11,304.02"/>
        <lane id=":node4A_4_1" index="1" speed="13.89" length="24.01" width="4.00" shape="1172.10,280.01 1172.11,304.02"/>
    </edge>
    <edge id=":node4A_6" function="internal">
        <lane id=":node4A_6_0" index="0" speed="13.89" length="9.68" width="4.00" shape="1158.10,286.02 1160.73,285.64 1162.60,284.52 1163.73,282.64 1164.10,280.02"/>
    </edge>
    <edge id=":node4A_7" function="internal">
        <lane id=":node4A_7_0" index="0" speed="13.89" length="24.00" width="4.00" shape="1158.10,286.02 1182.10,286.02"/>
        <lane id=":node4A_7_1" index="1" speed="13.89" length="24.00" width="4.00" shape="1158.10,290.02 1182.11,290.02"/>
        <lane id=":node4A_7_2" index="2" speed="13.89" length="24.00" width="4.00" shape="1158.10,294.02 1182.11,294.02"/>
        <lane id=":node4A_7_3" index="3" speed="13.89" length="24.00" width="4.00" shape="1158.10,298.02 1182.11,298.02"/>
    </edge>
    <edge id=":node4A_11" function="internal">
        <lane id=":node4A_11_0" index="0" speed="13.89" length="16.65" width="4.00" shape="1158.10,298.02 1164.23,298.39 1168.61,299.52 1171.23,301.40 1172.11,304.02"/>
    </edge>
    <edge id=":node4B_0" function="internal">
        <lane id=":node4B_0_0" index="0" speed="13.89" length="9.69" width="4.00" shape="1163.98,27.95 1163.60,25.32 1162.48,23.44 1160.60,22.32 1157.97,21.94"/>
    </edge>
    <edge id=":node4B_1" function="internal">
        <lane id=":node4B_1_0" index="0" speed="13.89" length="24.02" width="4.00" shape="1163.98,27.95 1163.98,3.93"/>
        <lane id=":node4B_1_1" index="1" speed="13.89" length="24.02" width="4.00" shape="1167.98,27.95 1167.98,3.93"/>
    </edge>
    <edge id=":node4B_3" function="internal">
        <lane id=":node4B_3_0" index="0" speed="13.89" length="9.68" width="4.00" shape="1181.98,21.94 1179.35,22.32 1177.48,23.44 1176.35,25.32 1175.98,27.94"/>
    </edge>
    <edge id=":node4B_4" function="internal">
        <lane id=":node4B_4_0" index="0" speed="13.89" length="24.01" width="4.00" shape="1181.98,21.94 1157.97,21.94"/>
        <lane id=":node4B_4_1" index="1" speed="13.89" length="24.01" width="4.00" shape="1181.98,17.94 1157.97,17.94"/>
        <lane id=":node4B_4_2" index="2" speed="13.89" length="24.01" width="4.00" shape="1181.98,13.94 1157.97,13.94"/>
        <lane id=":node4B_4_3" index="3" speed="13.89" length="24.01" width="4.00" shape="1181.98,9.94 1157.97,9.94"/>
    </edge>
    <edge id=":node4B_8" function="internal">
        <lane id=":node4B_8_0" index="0" speed="13.89" length="16.66" width="4.00" shape="1181.98,9.94 1175.85,9.57 1171.47,8.44 1168.85,6.56 1167.98,3.93"/>
    </edge>
    <edge id=":node4B_9" function="internal">
        <lane id=":node4B_9_0" index="0" speed="13.89" length="24.01" width="4.00" shape="1175.98,3.94 1175.98,27.94"/>
        <lane id=":node4B_9_1" index="1" speed="13.89" length="24.01" width="4.00" shape="1171.98,3.94 1171.98,27.95"/>
    </edge>
    <edge id=":node4B_11" function="internal">
        <lane id=":node4B_11_0" index="0" speed="13.89" length="4.15" width="4.00" shape="1171.98,3.94 1171.10,6.56 1169.98,7.36"/>
    </edge>
    <edge id=":node4B_12" function="internal">
        <lane id=":node4B_12_0" index="0" speed="13.89" length="12.50" width="4.00" shape="1169.98,7.36 1168.47,8.44 1164.09,9.56 1157.97,9.94"/>
    </edge>

    <edge id="0Ato1A" from="1" to="node1A" priority="-1" type="go_in_to_junction" length="150.00">
        <lane id="0Ato1A_0" index="0" speed="13.89" length="150.00" width="4.00" shape="0.00,286.00 288.00,286.00"/>
        <lane id="0Ato1A_1" index="1" speed="13.89" length="150.00" width="4.00" shape="0.00,290.00 288.00,290.00"/>
        <lane id="0Ato1A_2" index="2" speed="13.89" length="150.00" width="4.00" shape="0.00,294.00 288.00,294.00"/>
        <lane id="0Ato1A_3" index="3" speed="13.89" length="150.00" width="4.00" shape="0.00,298.00 288.00,298.00"/>
    </edge>
    <edge id="1Ato1B" from="node1A" to="node1B" priority="-1" type="come_out_of_junction" length="150.00">
        <lane id="1Ato1B_0" index="0" speed="13.89" length="150.00" width="4.00" shape="294.00,280.00 294.00,28.13"/>
        <lane id="1Ato1B_1" index="1" speed="13.89" length="150.00" width="4.00" shape="298.00,280.00 298.00,28.13"/>
    </edge>
    <edge id="1Ato2A" from="node1A" to="node2A" priority="-1" type="come_out_of_junction" length="150.00">
        <lane id="1Ato2A_0" index="0" speed="13.89" length="150.00" width="4.00" shape="312.00,286.00 588.00,286.00"/>
        <lane id="1Ato2A_1" index="1" speed="13.89" length="150.00" width="4.00" shape="312.00,290.00 588.00,290.00"/>
        <lane id="1Ato2A_2" index="2" speed="13.89" length="150.00" width="4.00" shape="312.00,294.00 588.00,294.00"/>
        <lane id="1Ato2A_3" index="3" speed="13.89" length="150.00" width="4.00" shape="312.00,298.00 588.00,298.00"/>
    </edge>
    <edge id="1AtoN" from="node1A" to="4" priority="-1" type="come_out_of_junction" length="150.00">
        <lane id="1AtoN_0" index="0" speed="13.89" length="150.00" width="4.00" shape="306.00,304.00 306.00,593.50"/>
        <lane id="1AtoN_1" index="1" speed="13.89" length="150.00" width="4.00" shape="302.00,304.00 302.00,593.50"/>
    </edge>
    <edge id="1Bto0B" from="node1B" to="gneJ21" priority="-1" length="150.00">
        <lane id="1Bto0B_0" index="0" speed="13.89" length="150.00" width="4.00" shape="288.00,22.14 3.23,22.28"/>
        <lane id="1Bto0B_1" index="1" speed="13.89" length="150.00" width="4.00" shape="288.00,18.14 3.23,18.28"/>
        <lane id="1Bto0B_2" index="2" speed="13.89" length="150.00" width="4.00" shape="287.99,14.14 3.22,14.28"/>
        <lane id="1Bto0B_3" index="3" speed="13.89" length="150.00" width="4.00" shape="287.99,10.14 3.22,10.28"/>
    </edge>
    <edge id="1Bto1A" from="node1B" to="node1A" priority="-1" type="go_in_to_junction" length="150.00">
        <lane id="1Bto1A_0" index="0" speed="13.89" length="150.00" width="4.00" shape="306.00,28.13 306.00,280.00"/>
        <lane id="1Bto1A_1" index="1" speed="13.89" length="150.00" width="4.00" shape="302.00,28.13 302.00,280.00"/>
    </edge>
    <edge id="1BtoS" from="node1B" to="gneJ24" priority="-1" length="150.00">
        <lane id="1BtoS_0" index="0" speed="13.89" length="150.00" width="4.00" shape="294.00,4.12 294.18,-258.66"/>
        <lane id="1BtoS_1" index="1" speed="13.89" length="150.00" width="4.00" shape="298.00,4.12 298.18,-258.66"/>
    </edge>
    <edge id="2Ato2B" from="node2A" to="node2B" priority="-1" length="150.00">
        <lane id="2Ato2B_0" index="0" speed="13.89" length="150.00" width="4.00" shape="594.00,280.00 594.02,28.05"/>
        <lane id="2Ato2B_1" index="1" speed="13.89" length="150.00" width="4.00" shape="598.00,280.00 598.02,28.05"/>
    </edge>
    <edge id="2Ato3A" from="node2A" to="node3A" priority="-1" length="150.00">
        <lane id="2Ato3A_0" index="0" speed="13.89" length="150.00" width="4.00" shape="612.00,286.00 880.53,286.01"/>
        <lane id="2Ato3A_1" index="1" speed="13.89" length="150.00" width="4.00" shape="612.00,290.00 880.53,290.01"/>
        <lane id="2Ato3A_2" index="2" speed="13.89" length="150.00" width="4.00" shape="612.00,294.00 880.53,294.01"/>
        <lane id="2Ato3A_3" index="3" speed="13.89" length="150.00" width="4.00" shape="612.00,298.00 880.53,298.01"/>
    </edge>
    <edge id="2AtoN" from="node2A" to="gneJ9" priority="-1" length="150.00">
        <lane id="2AtoN_0" index="0" speed="13.89" length="150.00" width="4.00" shape="606.00,304.01 605.73,594.45"/>
        <lane id="2AtoN_1" index="1" speed="13.89" length="150.00" width="4.00" shape="602.00,304.01 601.73,594.44"/>
    </edge>
    <edge id="2Bto1B" from="node2B" to="node1B" priority="-1" length="150.00">
        <lane id="2Bto1B_0" index="0" speed="13.89" length="150.00" width="4.00" shape="588.02,22.05 312.00,22.13"/>
        <lane id="2Bto1B_1" index="1" speed="13.89" length="150.00" width="4.00" shape="588.02,18.05 312.00,18.13"/>
        <lane id="2Bto1B_2" index="2" speed="13.89" length="150.00" width="4.00" shape="588.02,14.05 312.00,14.13"/>
        <lane id="2Bto1B_3" index="3" speed="13.89" length="150.00" width="4.00" shape="588.02,10.05 312.00,10.13"/>
    </edge>
    <edge id="2Bto2A" from="node2B" to="node2A" priority="-1" length="150.00">
        <lane id="2Bto2A_0" index="0" speed="13.89" length="150.00" width="4.00" shape="606.02,28.05 606.00,280.00"/>
        <lane id="2Bto2A_1" index="1" speed="13.89" length="150.00" width="4.00" shape="602.02,28.05 602.00,280.00"/>
    </edge>
    <edge id="2BtoS" from="node2B" to="gneJ25" priority="-1" length="150.00">
        <lane id="2BtoS_0" index="0" speed="13.89" length="150.00" width="4.00" shape="594.02,4.04 594.07,-258.34"/>
        <lane id="2BtoS_1" index="1" speed="13.89" length="150.00" width="4.00" shape="598.02,4.05 598.07,-258.34"/>
    </edge>
    <edge id="3Ato3B" from="node3A" to="node3B" priority="-1" length="150.00">
        <lane id="3Ato3B_0" index="0" speed="13.89" length="150.00" width="4.00" shape="886.53,280.01 886.42,27.95"/>
        <lane id="3Ato3B_1" index="1" speed="13.89" length="150.00" width="4.00" shape="890.53,280.01 890.42,27.94"/>
    </edge>
    <edge id="3Ato4A" from="node3A" to="node4A" priority="-1" length="150.00">
        <lane id="3Ato4A_0" index="0" speed="13.89" length="150.00" width="4.00" shape="904.54,286.01 1158.10,286.02"/>
        <lane id="3Ato4A_1" index="1" speed="13.89" length="150.00" width="4.00" shape="904.54,290.01 1158.10,290.02"/>
        <lane id="3Ato4A_2" index="2" speed="13.89" length="150.00" width="4.00" shape="904.54,294.01 1158.10,294.02"/>
        <lane id="3Ato4A_3" index="3" speed="13.89" length="150.00" width="4.00" shape="904.54,298.01 1158.10,298.02"/>
    </edge>
    <edge id="3AtoN" from="node3A" to="gneJ11" priority="-1" length="150.00">
        <lane id="3AtoN_0" index="0" speed="13.89" length="150.00" width="4.00" shape="898.54,304.01 898.57,600.29"/>
        <lane id="3AtoN_1" index="1" speed="13.89" length="150.00" width="4.00" shape="894.54,304.01 894.57,600.29"/>
    </edge>
    <edge id="3Bto2B" from="node3B" to="node2B" priority="-1" length="150.00">
        <lane id="3Bto2B_0" index="0" speed="13.89" length="150.00" width="4.00" shape="880.42,21.94 612.03,22.05"/>
        <lane id="3Bto2B_1" index="1" speed="13.89" length="150.00" width="4.00" shape="880.41,17.94 612.02,18.05"/>
        <lane id="3Bto2B_2" index="2" speed="13.89" length="150.00" width="4.00" shape="880.41,13.94 612.02,14.05"/>
        <lane id="3Bto2B_3" index="3" speed="13.89" length="150.00" width="4.00" shape="880.41,9.94 612.02,10.05"/>
    </edge>
    <edge id="3Bto3A" from="node3B" to="node3A" priority="-1" length="150.00">
        <lane id="3Bto3A_0" index="0" speed="13.89" length="150.00" width="4.00" shape="898.42,27.94 898.53,280.00"/>
        <lane id="3Bto3A_1" index="1" speed="13.89" length="150.00" width="4.00" shape="894.42,27.94 894.53,280.01"/>
    </edge>
    <edge id="3BtoS" from="node3B" to="gneJ28" priority="-1" length="150.00">
        <lane id="3BtoS_0" index="0" speed="13.89" length="150.00" width="4.00" shape="886.41,3.93 886.57,-250.82"/>
        <lane id="3BtoS_1" index="1" speed="13.89" length="150.00" width="4.00" shape="890.41,3.93 890.57,-250.82"/>
    </edge>
    <edge id="4Ato4B" from="node4A" to="node4B" priority="-1" length="150.00">
        <lane id="4Ato4B_0" index="0" speed="13.89" length="150.00" width="4.00" shape="1164.10,280.02 1163.98,27.95"/>
        <lane id="4Ato4B_1" index="1" speed="13.89" length="150.00" width="4.00" shape="1168.10,280.02 1167.98,27.95"/>
    </edge>
    <edge id="4Ato5A" from="node4A" to="5" priority="-1" length="150.00">
        <lane id="4Ato5A_0" index="0" speed="13.89" length="150.00" width="4.00" shape="1182.10,286.02 1507.41,285.88"/>
        <lane id="4Ato5A_1" index="1" speed="13.89" length="150.00" width="4.00" shape="1182.11,290.02 1507.42,289.88"/>
        <lane id="4Ato5A_2" index="2" speed="13.89" length="150.00" width="4.00" shape="1182.11,294.02 1507.42,293.88"/>
        <lane id="4Ato5A_3" index="3" speed="13.89" length="150.00" width="4.00" shape="1182.11,298.02 1507.42,297.88"/>
    </edge>
    <edge id="4AtoN" from="node4A" to="gneJ18" priority="-1" length="150.00">
        <lane id="4AtoN_0" index="0" speed="13.89" length="150.00" width="4.00" shape="1176.11,304.02 1176.06,604.66"/>
        <lane id="4AtoN_1" index="1" speed="13.89" length="150.00" width="4.00" shape="1172.11,304.02 1172.06,604.66"/>
    </edge>
    <edge id="4Bto3B" from="node4B" to="node3B" priority="-1" length="150.00">
        <lane id="4Bto3B_0" index="0" speed="13.89" length="150.00" width="4.00" shape="1157.97,21.94 904.42,21.94"/>
        <lane id="4Bto3B_1" index="1" speed="13.89" length="150.00" width="4.00" shape="1157.97,17.94 904.42,17.94"/>
        <lane id="4Bto3B_2" index="2" speed="13.89" length="150.00" width="4.00" shape="1157.97,13.94 904.42,13.94"/>
        <lane id="4Bto3B_3" index="3" speed="13.89" length="150.00" width="4.00" shape="1157.97,9.94 904.42,9.94"/>
    </edge>
    <edge id="4Bto4A" from="node4B" to="node4A" priority="-1" length="150.00">
        <lane id="4Bto4A_0" index="0" speed="13.89" length="150.00" width="4.00" shape="1175.98,27.94 1176.10,280.01"/>
        <lane id="4Bto4A_1" index="1" speed="13.89" length="150.00" width="4.00" shape="1171.98,27.95 1172.10,280.01"/>
    </edge>
    <edge id="4BtoS" from="node4B" to="gneJ29" priority="-1" length="150.00">
        <lane id="4BtoS_0" index="0" speed="13.89" length="150.00" width="4.00" shape="1163.98,3.93 1164.29,-244.95"/>
        <lane id="4BtoS_1" index="1" speed="13.89" length="150.00" width="4.00" shape="1167.98,3.93 1168.29,-244.94"/>
    </edge>
    <edge id="5Bto4B" from="gneJ30" to="node4B" priority="-1" length="150.00">