<?xml version="1.0" encoding="UTF-8"?>

<!-- generated on 2020年07月15日 17時04分16秒 by Eclipse SUMO netedit Version 1.2.0
<configuration xmlns:xsi="http://www.w3.org/2001/XMLSchema-instance" xsi:noNamespaceSchemaLocation="http://sumo.dlr.de/xsd/netconvertConfiguration.xsd">

    <input>
        <sumo-net-file value="/home/vtoan/4th%20FDSE/multi-agent-TSC/network/4x2-intersections.net.xml"/>
    </input>

    <output>
        <output-file value="/home/vtoan/4th%20FDSE/multi-agent-TSC/network/4x2-intersections.net.xml"/>
    </output>

    <processing>
        <geometry.max-grade.fix value="false"/>
        <offset.disable-normalization value="true"/>
        <lefthand value="false"/>
    </processing>

    <junctions>
        <no-turnarounds value="true"/>
        <junctions.corner-detail value="0"/>
        <junctions.limit-turn-speed value="-1"/>
        <rectangular-lane-cut value="false"/>
    </junctions>

    <pedestrian>
        <walkingareas value="false"/>
    </pedestrian>

</configuration>
-->

<net version="1.1" xmlns:xsi="http://www.w3.org/2001/XMLSchema-instance" xsi:noNamespaceSchemaLocation="http://sumo.dlr.de/xsd/net_file.xsd">

    <location netOffset="300.00,300.00" convBoundary="0.00,-258.66,1516.67,604.66" origBoundary="-310.00,-310.00,310.00,310.00" projParameter="!"/>

    <type id="come_out_of_junction" priority="46" numLanes="1" speed="11.11"/>
    <type id="come_out_of_rd" priority="40" numLanes="1" speed="11.11"/>
    <type id="go_in_to_junction" priority="78" numLanes="1" speed="19.44"/>

    <edge id=":1_0" function="internal">
        <lane id=":1_0_0" index="0" speed="13.89" length="5.84" width="4.00" shape="0.00,302.00 -1.50,301.00 -2.00,300.00 -1.50,299.00 0.00,298.00"/>
    </edge>
    <edge id=":4_0" function="internal">
        <lane id=":4_0_0" index="0" speed="13.89" length="5.84" width="4.00" shape="302.00,593.50 301.00,595.00 300.00,595.50 299.00,595.00 298.00,593.50"/>
    </edge>
    <edge id=":node1A_0" function="internal">
        <lane id=":node1A_0_0" index="0" speed="13.89" length="9.68" width="4.00" shape="294.00,312.00 293.62,309.38 292.50,307.50 290.62,306.38 288.00,306.00"/>
    </edge>
    <edge id=":node1A_1" function="internal">
        <lane id=":node1A_1_0" index="0" speed="13.89" length="24.00" width="4.00" shape="294.00,312.00 294.00,288.00"/>
        <lane id=":node1A_1_1" index="1" speed="13.89" length="24.00" width="4.00" shape="298.00,312.00 298.00,288.00"/>
    </edge>
    <edge id=":node1A_3" function="internal">
        <lane id=":node1A_3_0" index="0" speed="13.89" length="8.37" width="4.00" shape="298.00,312.00 298.88,305.88 300.00,304.00"/>
    </edge>
    <edge id=":node1A_16" function="internal">
        <lane id=":node1A_16_0" index="0" speed="13.89" length="14.20" width="4.00" shape="300.00,304.00 301.50,301.50 305.88,298.88 312.00,298.00"/>
    </edge>
    <edge id=":node1A_4" function="internal">
        <lane id=":node1A_4_0" index="0" speed="13.89" length="9.68" width="4.00" shape="312.00,306.00 309.38,306.38 307.50,307.50 306.38,309.38 306.00,312.00"/>
    </edge>
    <edge id=":node1A_5" function="internal">
        <lane id=":node1A_5_0" index="0" speed="13.89" length="24.00" width="4.00" shape="312.00,306.00 288.00,306.00"/>
        <lane id=":node1A_5_1" index="1" speed="13.89" length="24.00" width="4.00" shape="312.00,302.00 288.00,302.00"/>
    </edge>
    <edge id=":node1A_7" function="internal">
        <lane id=":node1A_7_0" index="0" speed="13.89" length="8.37" width="4.00" shape="312.00,302.00 305.88,301.12 304.00,300.00"/>
    </edge>
    <edge id=":node1A_17" function="internal">
        <lane id=":node1A_17_0" index="0" speed="13.89" length="14.20" width="4.00" shape="304.00,300.00 301.50,298.50 298.88,294.12 298.00,288.00"/>
    </edge>
    <edge id=":node1A_8" function="internal">
        <lane id=":node1A_8_0" index="0" speed="13.89" length="9.68" width="4.00" shape="306.00,288.00 306.38,290.62 307.50,292.50 309.38,293.62 312.00,294.00"/>
    </edge>
    <edge id=":node1A_9" function="internal">
        <lane id=":node1A_9_0" index="0" speed="13.89" length="24.00" width="4.00" shape="306.00,288.00 306.00,312.00"/>
        <lane id=":node1A_9_1" index="1" speed="13.89" length="24.00" width="4.00" shape="302.00,288.00 302.00,312.00"/>
    </edge>
    <edge id=":node1A_11" function="internal">
        <lane id=":node1A_11_0" index="0" speed="13.89" length="8.37" width="4.00" shape="302.00,288.00 301.12,294.12 300.00,296.00"/>
    </edge>
    <edge id=":node1A_18" function="internal">
        <lane id=":node1A_18_0" index="0" speed="13.89" length="14.20" width="4.00" shape="300.00,296.00 298.50,298.50 294.12,301.12 288.00,302.00"/>
    </edge>
    <edge id=":node1A_12" function="internal">
        <lane id=":node1A_12_0" index="0" speed="13.89" length="9.68" width="4.00" shape="288.00,294.00 290.62,293.62 292.50,292.50 293.62,290.62 294.00,288.00"/>
    </edge>
    <edge id=":node1A_13" function="internal">
        <lane id=":node1A_13_0" index="0" speed="13.89" length="24.00" width="4.00" shape="288.00,294.00 312.00,294.00"/>
        <lane id=":node1A_13_1" index="1" speed="13.89" length="24.00" width="4.00" shape="288.00,298.00 312.00,298.00"/>
    </edge>
    <edge id=":node1A_15" function="internal">
        <lane id=":node1A_15_0" index="0" speed="13.89" length="8.37" width="4.00" shape="288.00,298.00 294.12,298.88 296.00,300.00"/>
    </edge>
    <edge id=":node1A_19" function="internal">
        <lane id=":node1A_19_0" index="0" speed="13.89" length="14.20" width="4.00" shape="296.00,300.00 298.50,301.50 301.12,305.88 302.00,312.00"/>
    </edge>
    <edge id=":node1B_0" function="internal">
        <lane id=":node1B_0_0" index="0" speed="13.89" length="9.68" width="4.00" shape="294.00,20.13 293.62,17.51 292.50,15.63 290.62,14.51 288.00,14.14"/>
    </edge>
    <edge id=":node1B_1" function="internal">
        <lane id=":node1B_1_0" index="0" speed="13.89" length="24.01" width="4.00" shape="294.00,20.13 294.01,-3.88"/>
        <lane id=":node1B_1_1" index="1" speed="13.89" length="24.01" width="4.00" shape="298.00,20.13 298.01,-3.88"/>
    </edge>
    <edge id=":node1B_3" function="internal">
        <lane id=":node1B_3_0" index="0" speed="13.89" length="8.38" width="4.00" shape="298.00,20.13 298.88,14.01 300.00,12.13"/>
    </edge>
    <edge id=":node1B_16" function="internal">
        <lane id=":node1B_16_0" index="0" speed="13.89" length="14.21" width="4.00" shape="300.00,12.13 301.50,9.63 305.88,7.00 312.01,6.13"/>
    </edge>
    <edge id=":node1B_4" function="internal">
        <lane id=":node1B_4_0" index="0" speed="13.89" length="9.69" width="4.00" shape="312.01,14.13 309.38,14.50 307.50,15.63 306.38,17.51 306.00,20.13"/>
    </edge>
    <edge id=":node1B_5" function="internal">
        <lane id=":node1B_5_0" index="0" speed="13.89" length="24.01" width="4.00" shape="312.01,14.13 288.00,14.14"/>
        <lane id=":node1B_5_1" index="1" speed="13.89" length="24.01" width="4.00" shape="312.01,10.13 288.00,10.14"/>
    </edge>
    <edge id=":node1B_7" function="internal">
        <lane id=":node1B_7_0" index="0" speed="13.89" length="8.37" width="4.00" shape="312.01,10.13 305.88,9.25 304.01,8.13"/>
    </edge>
    <edge id=":node1B_17" function="internal">
        <lane id=":node1B_17_0" index="0" speed="13.89" length="14.21" width="4.00" shape="304.01,8.13 301.50,6.63 298.88,2.25 298.01,-3.88"/>
    </edge>
    <edge id=":node1B_8" function="internal">
        <lane id=":node1B_8_0" index="0" speed="13.89" length="9.68" width="4.00" shape="306.01,-3.87 306.38,-1.25 307.51,0.63 309.38,1.75 312.01,2.13"/>
    </edge>
    <edge id=":node1B_9" function="internal">
        <lane id=":node1B_9_0" index="0" speed="13.89" length="24.01" width="4.00" shape="306.01,-3.87 306.00,20.13"/>
        <lane id=":node1B_9_1" index="1" speed="13.89" length="24.01" width="4.00" shape="302.01,-3.88 302.00,20.13"/>
    </edge>
    <edge id=":node1B_11" function="internal">
        <lane id=":node1B_11_0" index="0" speed="13.89" length="8.37" width="4.00" shape="302.01,-3.88 301.13,2.25 300.01,4.12"/>
    </edge>
    <edge id=":node1B_18" function="internal">
        <lane id=":node1B_18_0" index="0" speed="13.89" length="14.22" width="4.00" shape="300.01,4.12 298.50,6.63 294.12,9.26 288.00,10.14"/>
    </edge>
    <edge id=":node1B_12" function="internal">
        <lane id=":node1B_12_0" index="0" speed="13.89" length="9.70" width="4.00" shape="287.99,2.14 290.62,1.76 292.50,0.63 293.63,-1.25 294.01,-3.88"/>
    </edge>
    <edge id=":node1B_13" function="internal">
        <lane id=":node1B_13_0" index="0" speed="13.89" length="24.01" width="4.00" shape="287.99,2.14 312.01,2.13"/>
        <lane id=":node1B_13_1" index="1" speed="13.89" length="24.01" width="4.00" shape="287.99,6.14 312.01,6.13"/>
    </edge>
    <edge id=":node1B_15" function="internal">
        <lane id=":node1B_15_0" index="0" speed="13.89" length="8.38" width="4.00" shape="287.99,6.14 294.12,7.01 296.00,8.13"/>
    </edge>
    <edge id=":node1B_19" function="internal">
        <lane id=":node1B_19_0" index="0" speed="13.89" length="14.21" width="4.00" shape="296.00,8.13 298.50,9.63 301.12,14.01 302.00,20.13"/>
    </edge>
    <edge id=":node2A_0" function="internal">
        <lane id=":node2A_0_0" index="0" speed="13.89" length="9.68" width="4.00" shape="593.99,312.00 593.62,309.38 592.49,307.50 590.62,306.38 587.99,306.00"/>
    </edge>
    <edge id=":node2A_1" function="internal">
        <lane id=":node2A_1_0" index="0" speed="13.89" length="24.00" width="4.00" shape="593.99,312.00 594.00,288.00"/>
        <lane id=":node2A_1_1" index="1" speed="13.89" length="24.00" width="4.00" shape="597.99,312.01 598.00,288.00"/>
    </edge>
    <edge id=":node2A_3" function="internal">
        <lane id=":node2A_3_0" index="0" speed="13.89" length="8.37" width="4.00" shape="597.99,312.01 598.87,305.88 599.99,304.01"/>
    </edge>
    <edge id=":node2A_17" function="internal">
        <lane id=":node2A_17_0" index="0" speed="13.89" length="14.22" width="4.00" shape="599.99,304.01 601.50,301.50 605.88,298.88 612.00,298.00"/>
    </edge>
    <edge id=":node2A_4" function="internal">
        <lane id=":node2A_4_0" index="0" speed="13.89" length="9.69" width="4.00" shape="612.00,306.00 609.37,306.38 607.49,307.50 606.37,309.38 605.99,312.01"/>
    </edge>
    <edge id=":node2A_5" function="internal">
        <lane id=":node2A_5_0" index="0" speed="13.89" length="24.01" width="4.00" shape="612.00,306.00 587.99,306.00"/>
        <lane id=":node2A_5_1" index="1" speed="13.89" length="24.01" width="4.00" shape="612.00,302.00 587.99,302.00"/>
    </edge>
    <edge id=":node2A_7" function="internal">
        <lane id=":node2A_7_0" index="0" speed="13.89" length="8.37" width="4.00" shape="612.00,302.00 605.88,301.13 604.00,300.00"/>
    </edge>
    <edge id=":node2A_18" function="internal">
        <lane id=":node2A_18_0" index="0" speed="13.89" length="14.21" width="4.00" shape="604.00,300.00 601.50,298.50 598.88,294.12 598.00,288.00"/>
    </edge>
    <edge id=":node2A_8" function="internal">
        <lane id=":node2A_8_0" index="0" speed="13.89" length="9.68" width="4.00" shape="606.00,288.00 606.38,290.63 607.50,292.50 609.38,293.63 612.00,294.00"/>
    </edge>
    <edge id=":node2A_9" function="internal">
        <lane id=":node2A_9_0" index="0" speed="13.89" length="24.01" width="4.00" shape="606.00,288.00 605.99,312.01"/>
        <lane id=":node2A_9_1" index="1" speed="13.89" length="24.01" width="4.00" shape="602.00,288.00 601.99,312.01"/>
    </edge>
    <edge id=":node2A_11" function="internal">
        <lane id=":node2A_11_0" index="0" speed="13.89" length="8.38" width="4.00" shape="602.00,288.00 601.12,294.12 600.00,296.00"/>
    </edge>
    <edge id=":node2A_19" function="internal">
        <lane id=":node2A_19_0" index="0" speed="13.89" length="14.21" width="4.00" shape="600.00,296.00 598.50,298.50 594.12,301.12 587.99,302.00"/>
    </edge>
    <edge id=":node2A_12" function="internal">
        <lane id=":node2A_12_0" index="0" speed="13.89" length="9.68" width="4.00" shape="587.99,294.00 590.62,293.62 592.50,292.50 593.63,290.62 594.00,288.00"/>
    </edge>
    <edge id=":node2A_13" function="internal">
        <lane id=":node2A_13_0" index="0" speed="13.89" length="24.01" width="4.00" shape="587.99,294.00 612.00,294.00"/>
        <lane id=":node2A_13_1" index="1" speed="13.89" length="24.01" width="4.00" shape="587.99,298.00 612.00,298.00"/>
    </edge>
    <edge id=":node2A_15" function="internal">
        <lane id=":node2A_15_0" index="0" speed="13.89" length="8.38" width="4.00" shape="587.99,298.00 594.12,298.88 595.99,300.00"/>
    </edge>
    <edge id=":node2A_16" function="internal">
        <lane id=":node2A_16_0" index="0" speed="13.89" length="2.92" width="4.00" shape="587.99,298.00 589.49,299.00 589.99,300.00"/>
    </edge>
    <edge id=":node2A_20" function="internal">
        <lane id=":node2A_20_0" index="0" speed="13.89" length="14.21" width="4.00" shape="595.99,300.00 598.50,301.50 601.12,305.88 601.99,312.01"/>
    </edge>
    <edge id=":node2A_21" function="internal">
        <lane id=":node2A_21_0" index="0" speed="13.89" length="2.92" width="4.00" shape="589.99,300.00 589.49,301.00 587.99,302.00"/>
    </edge>
    <edge id=":node2B_0" function="internal">
        <lane id=":node2B_0_0" index="0" speed="13.89" length="9.68" width="4.00" shape="594.02,20.05 593.64,17.43 592.52,15.55 590.64,14.43 588.02,14.05"/>
    </edge>
    <edge id=":node2B_1" function="internal">
        <lane id=":node2B_1_0" index="0" speed="13.89" length="24.01" width="4.00" shape="594.02,20.05 594.02,-3.96"/>
        <lane id=":node2B_1_1" index="1" speed="13.89" length="24.01" width="4.00" shape="598.02,20.05 598.02,-3.95"/>
    </edge>
    <edge id=":node2B_3" function="internal">
        <lane id=":node2B_3_0" index="0" speed="13.89" length="8.38" width="4.00" shape="598.02,20.05 598.89,13.93 600.02,12.05"/>
    </edge>
    <edge id=":node2B_16" function="internal">
        <lane id=":node2B_16_0" index="0" speed="13.89" length="14.21" width="4.00" shape="600.02,12.05 601.52,9.55 605.90,6.92 612.02,6.05"/>
    </edge>
    <edge id=":node2B_4" function="internal">
        <lane id=":node2B_4_0" index="0" speed="13.89" length="9.69" width="4.00" shape="612.03,14.05 609.40,14.42 607.52,15.55 606.39,17.43 606.02,20.05"/>
    </edge>
    <edge id=":node2B_5" function="internal">
        <lane id=":node2B_5_0" index="0" speed="13.89" length="24.01" width="4.00" shape="612.03,14.05 588.02,14.05"/>
        <lane id=":node2B_5_1" index="1" speed="13.89" length="24.01" width="4.00" shape="612.03,10.05 588.02,10.05"/>
    </edge>
    <edge id=":node2B_7" function="internal">
        <lane id=":node2B_7_0" index="0" speed="13.89" length="8.38" width="4.00" shape="612.03,10.05 605.90,9.17 604.02,8.05"/>
    </edge>
    <edge id=":node2B_17" function="internal">
        <lane id=":node2B_17_0" index="0" speed="13.89" length="14.21" width="4.00" shape="604.02,8.05 601.52,6.55 598.90,2.17 598.02,-3.95"/>
    </edge>
    <edge id=":node2B_8" function="internal">
        <lane id=":node2B_8_0" index="0" speed="13.89" length="9.68" width="4.00" shape="606.02,-3.95 606.40,-1.33 607.52,0.55 609.40,1.67 612.02,2.05"/>
    </edge>
    <edge id=":node2B_9" function="internal">
        <lane id=":node2B_9_0" index="0" speed="13.89" length="24.01" width="4.00" shape="606.02,-3.95 606.02,20.05"/>
        <lane id=":node2B_9_1" index="1" speed="13.89" length="24.01" width="4.00" shape="602.02,-3.95 602.02,20.05"/>
    </edge>
    <edge id=":node2B_11" function="internal">
        <lane id=":node2B_11_0" index="0" speed="13.89" length="8.38" width="4.00" shape="602.02,-3.95 601.15,2.17 600.02,4.05"/>
    </edge>
    <edge id=":node2B_18" function="internal">
        <lane id=":node2B_18_0" index="0" speed="13.89" length="14.21" width="4.00" shape="600.02,4.05 598.52,6.55 594.14,9.18 588.02,10.05"/>
    </edge>
    <edge id=":node2B_12" function="internal">
        <lane id=":node2B_12_0" index="0" speed="13.89" length="9.69" width="4.00" shape="588.02,2.05 590.64,1.68 592.52,0.55 593.65,-1.33 594.02,-3.96"/>
    </edge>
    <edge id=":node2B_13" function="internal">
        <lane id=":node2B_13_0" index="0" speed="13.89" length="24.01" width="4.00" shape="588.02,2.05 612.02,2.05"/>
        <lane id=":node2B_13_1" index="1" speed="13.89" length="24.01" width="4.00" shape="588.02,6.05 612.02,6.05"/>
    </edge>
    <edge id=":node2B_15" function="internal">
        <lane id=":node2B_15_0" index="0" speed="13.89" length="8.37" width="4.00" shape="588.02,6.05 594.14,6.93 596.02,8.05"/>
    </edge>
    <edge id=":node2B_19" function="internal">
        <lane id=":node2B_19_0" index="0" speed="13.89" length="14.21" width="4.00" shape="596.02,8.05 598.52,9.55 601.14,13.93 602.02,20.05"/>
    </edge>
    <edge id=":node3A_0" function="internal">
        <lane id=":node3A_0_0" index="0" speed="13.89" length="9.68" width="4.00" shape="886.54,312.01 886.17,309.39 885.04,307.51 883.16,306.38 880.54,306.01"/>
    </edge>
    <edge id=":node3A_1" function="internal">
        <lane id=":node3A_1_0" index="0" speed="13.89" length="24.00" width="4.00" shape="886.54,312.01 886.53,288.01"/>
        <lane id=":node3A_1_1" index="1" speed="13.89" length="24.00" width="4.00" shape="890.54,312.01 890.53,288.01"/>
    </edge>
    <edge id=":node3A_3" function="internal">
        <lane id=":node3A_3_0" index="0" speed="13.89" length="8.37" width="4.00" shape="890.54,312.01 891.42,305.89 892.54,304.01"/>
    </edge>
    <edge id=":node3A_16" function="internal">
        <lane id=":node3A_16_0" index="0" speed="13.89" length="14.21" width="4.00" shape="892.54,304.01 894.04,301.51 898.42,298.89 904.54,298.01"/>
    </edge>
    <edge id=":node3A_4" function="internal">
        <lane id=":node3A_4_0" index="0" speed="13.89" length="9.68" width="4.00" shape="904.54,306.01 901.92,306.39 900.04,307.51 898.92,309.39 898.54,312.01"/>
    </edge>
    <edge id=":node3A_5" function="internal">
        <lane id=":node3A_5_0" index="0" speed="13.89" length="24.00" width="4.00" shape="904.54,306.01 880.54,306.01"/>
        <lane id=":node3A_5_1" index="1" speed="13.89" length="24.00" width="4.00" shape="904.54,302.01 880.54,302.01"/>
    </edge>
    <edge id=":node3A_7" function="internal">
        <lane id=":node3A_7_0" index="0" speed="13.89" length="8.37" width="4.00" shape="904.54,302.01 898.42,301.14 896.54,300.01"/>
    </edge>
    <edge id=":node3A_17" function="internal">
        <lane id=":node3A_17_0" index="0" speed="13.89" length="14.21" width="4.00" shape="896.54,300.01 894.04,298.51 891.41,294.13 890.53,288.01"/>
    </edge>
    <edge id=":node3A_8" function="internal">
        <lane id=":node3A_8_0" index="0" speed="13.89" length="9.69" width="4.00" shape="898.53,288.00 898.91,290.63 900.04,292.51 901.91,293.63 904.54,294.01"/>
    </edge>
    <edge id=":node3A_9" function="internal">
        <lane id=":node3A_9_0" index="0" speed="13.89" length="24.01" width="4.00" shape="898.53,288.00 898.54,312.01"/>
        <lane id=":node3A_9_1" index="1" speed="13.89" length="24.01" width="4.00" shape="894.53,288.01 894.54,312.01"/>
    </edge>
    <edge id=":node3A_11" function="internal">
        <lane id=":node3A_11_0" index="0" speed="13.89" length="8.38" width="4.00" shape="894.53,288.01 893.66,294.13 892.54,296.01"/>
    </edge>
    <edge id=":node3A_18" function="internal">
        <lane id=":node3A_18_0" index="0" speed="13.89" length="14.21" width="4.00" shape="892.54,296.01 891.04,298.51 886.66,301.13 880.54,302.01"/>
    </edge>
    <edge id=":node3A_12" function="internal">
        <lane id=":node3A_12_0" index="0" speed="13.89" length="9.68" width="4.00" shape="880.54,294.01 883.16,293.63 885.04,292.51 886.16,290.63 886.53,288.01"/>
    </edge>
    <edge id=":node3A_13" function="internal">
        <lane id=":node3A_13_0" index="0" speed="13.89" length="24.00" width="4.00" shape="880.54,294.01 904.54,294.01"/>
        <lane id=":node3A_13_1" index="1" speed="13.89" length="24.00" width="4.00" shape="880.54,298.01 904.54,298.01"/>
    </edge>
    <edge id=":node3A_15" function="internal">
        <lane id=":node3A_15_0" index="0" speed="13.89" length="8.38" width="4.00" shape="880.54,298.01 886.66,298.88 888.54,300.01"/>
    </edge>
    <edge id=":node3A_19" function="internal">
        <lane id=":node3A_19_0" index="0" speed="13.89" length="14.21" width="4.00" shape="888.54,300.01 891.04,301.51 893.67,305.89 894.54,312.01"/>
    </edge>
    <edge id=":node3B_0" function="internal">
        <lane id=":node3B_0_0" index="0" speed="13.89" length="9.68" width="4.00" shape="886.42,19.95 886.04,17.32 884.91,15.44 883.04,14.32 880.41,13.94"/>
    </edge>
    <edge id=":node3B_1" function="internal">
        <lane id=":node3B_1_0" index="0" speed="13.89" length="24.01" width="4.00" shape="886.42,19.95 886.42,-4.07"/>
        <lane id=":node3B_1_1" index="1" speed="13.89" length="24.01" width="4.00" shape="890.42,19.94 890.42,-4.07"/>
    </edge>
    <edge id=":node3B_3" function="internal">
        <lane id=":node3B_3_0" index="0" speed="13.89" length="8.38" width="4.00" shape="890.42,19.94 891.29,13.82 892.42,11.94"/>
    </edge>
    <edge id=":node3B_16" function="internal">
        <lane id=":node3B_16_0" index="0" speed="13.89" length="14.20" width="4.00" shape="892.42,11.94 893.91,9.44 898.29,6.82 904.41,5.94"/>
    </edge>
    <edge id=":node3B_4" function="internal">
        <lane id=":node3B_4_0" index="0" speed="13.89" length="9.68" width="4.00" shape="904.41,13.94 901.79,14.32 899.91,15.44 898.79,17.32 898.42,19.94"/>
    </edge>
    <edge id=":node3B_5" function="internal">
        <lane id=":node3B_5_0" index="0" speed="13.89" length="24.00" width="4.00" shape="904.41,13.94 880.41,13.94"/>
        <lane id=":node3B_5_1" index="1" speed="13.89" length="24.00" width="4.00" shape="904.41,9.94 880.41,9.94"/>
    </edge>
    <edge id=":node3B_7" function="internal">
        <lane id=":node3B_7_0" index="0" speed="13.89" length="8.37" width="4.00" shape="904.41,9.94 898.29,9.06 896.42,7.94"/>
    </edge>
    <edge id=":node3B_17" function="internal">
        <lane id=":node3B_17_0" index="0" speed="13.89" length="14.21" width="4.00" shape="896.42,7.94 893.91,6.44 891.29,2.06 890.42,-4.07"/>
    </edge>
    <edge id=":node3B_8" function="internal">
        <lane id=":node3B_8_0" index="0" speed="13.89" length="9.68" width="4.00" shape="898.42,-4.06 898.79,-1.44 899.91,0.44 901.79,1.56 904.41,1.94"/>
    </edge>
    <edge id=":node3B_9" function="internal">
        <lane id=":node3B_9_0" index="0" speed="13.89" length="24.00" width="4.00" shape="898.42,-4.06 898.42,19.94"/>
        <lane id=":node3B_9_1" index="1" speed="13.89" length="24.00" width="4.00" shape="894.42,-4.06 894.42,19.94"/>
    </edge>
    <edge id=":node3B_11" function="internal">
        <lane id=":node3B_11_0" index="0" speed="13.89" length="8.37" width="4.00" shape="894.42,-4.06 893.54,2.06 892.42,3.93"/>
    </edge>
    <edge id=":node3B_18" function="internal">
        <lane id=":node3B_18_0" index="0" speed="13.89" length="14.22" width="4.00" shape="892.42,3.93 890.91,6.44 886.54,9.07 880.41,9.94"/>
    </edge>
    <edge id=":node3B_12" function="internal">
        <lane id=":node3B_12_0" index="0" speed="13.89" length="9.69" width="4.00" shape="880.41,1.94 883.04,1.57 884.91,0.44 886.04,-1.44 886.42,-4.07"/>
    </edge>
    <edge id=":node3B_13" function="internal">
        <lane id=":node3B_13_0" index="0" speed="13.89" length="24.01" width="4.00" shape="880.41,1.94 904.41,1.94"/>
        <lane id=":node3B_13_1" index="1" speed="13.89" length="24.01" width="4.00" shape="880.41,5.94 904.41,5.94"/>
    </edge>
    <edge id=":node3B_15" function="internal">
        <lane id=":node3B_15_0" index="0" speed="13.89" length="8.38" width="4.00" shape="880.41,5.94 886.53,6.82 888.41,7.94"/>
    </edge>
    <edge id=":node3B_19" function="internal">
        <lane id=":node3B_19_0" index="0" speed="13.89" length="14.21" width="4.00" shape="888.41,7.94 890.91,9.44 893.54,13.82 894.42,19.94"/>
    </edge>
    <edge id=":node4A_0" function="internal">
        <lane id=":node4A_0_0" index="0" speed="13.89" length="9.68" width="4.00" shape="1164.11,312.02 1163.73,309.39 1162.61,307.52 1160.73,306.39 1158.11,306.02"/>
    </edge>
    <edge id=":node4A_1" function="internal">
        <lane id=":node4A_1_0" index="0" speed="13.89" length="24.00" width="4.00" shape="1164.11,312.02 1164.10,288.02"/>
        <lane id=":node4A_1_1" index="1" speed="13.89" length="24.00" width="4.00" shape="1168.11,312.02 1168.10,288.02"/>
    </edge>
    <edge id=":node4A_3" function="internal">
        <lane id=":node4A_3_0" index="0" speed="13.89" length="8.37" width="4.00" shape="1168.11,312.02 1168.98,305.90 1170.11,304.02"/>
    </edge>
    <edge id=":node4A_16" function="internal">
        <lane id=":node4A_16_0" index="0" speed="13.89" length="14.21" width="4.00" shape="1170.11,304.02 1171.61,301.52 1175.98,298.89 1182.11,298.02"/>
    </edge>
    <edge id=":node4A_4" function="internal">
        <lane id=":node4A_4_0" index="0" speed="13.89" length="9.68" width="4.00" shape="1182.11,306.02 1179.49,306.39 1177.61,307.52 1176.48,309.39 1176.11,312.02"/>
    </edge>
    <edge id=":node4A_5" function="internal">
        <lane id=":node4A_5_0" index="0" speed="13.89" length="24.01" width="4.00" shape="1182.11,306.02 1158.11,306.02"/>
        <lane id=":node4A_5_1" index="1" speed="13.89" length="24.01" width="4.00" shape="1182.11,302.02 1158.11,302.02"/>
    </edge>
    <edge id=":node4A_7" function="internal">
        <lane id=":node4A_7_0" index="0" speed="13.89" length="8.38" width="4.00" shape="1182.11,302.02 1175.99,301.14 1174.11,300.02"/>
    </edge>
    <edge id=":node4A_17" function="internal">
        <lane id=":node4A_17_0" index="0" speed="13.89" length="14.21" width="4.00" shape="1174.11,300.02 1171.61,298.52 1168.98,294.14 1168.10,288.02"/>
    </edge>
    <edge id=":node4A_8" function="internal">
        <lane id=":node4A_8_0" index="0" speed="13.89" length="9.68" width="4.00" shape="1176.10,288.01 1176.48,290.64 1177.61,292.52 1179.48,293.64 1182.11,294.02"/>
    </edge>
    <edge id=":node4A_9" function="internal">
        <lane id=":node4A_9_0" index="0" speed="13.89" length="24.01" width="4.00" shape="1176.10,288.01 1176.11,312.02"/>
        <lane id=":node4A_9_1" index="1" speed="13.89" length="24.01" width="4.00" shape="1172.10,288.01 1172.11,312.02"/>
    </edge>
    <edge id=":node4A_11" function="internal">
        <lane id=":node4A_11_0" index="0" speed="13.89" length="8.38" width="4.00" shape="1172.10,288.01 1171.23,294.14 1170.11,296.02"/>
    </edge>
    <edge id=":node4A_18" function="internal">
        <lane id=":node4A_18_0" index="0" speed="13.89" length="14.20" width="4.00" shape="1170.11,296.02 1168.61,298.52 1164.23,301.14 1158.11,302.02"/>
    </edge>
    <edge id=":node4A_12" function="internal">
        <lane id=":node4A_12_0" index="0" speed="13.89" length="9.68" width="4.00" shape="1158.11,294.02 1160.73,293.64 1162.61,292.52 1163.73,290.64 1164.10,288.02"/>
    </edge>
    <edge id=":node4A_13" function="internal">
        <lane id=":node4A_13_0" index="0" speed="13.89" length="24.00" width="4.00" shape="1158.11,294.02 1182.11,294.02"/>
        <lane id=":node4A_13_1" index="1" speed="13.89" length="24.00" width="4.00" shape="1158.11,298.02 1182.11,298.02"/>
    </edge>
    <edge id=":node4A_15" function="internal">
        <lane id=":node4A_15_0" index="0" speed="13.89" length="8.37" width="4.00" shape="1158.11,298.02 1164.23,298.89 1166.10,300.02"/>
    </edge>
    <edge id=":node4A_19" function="internal">
        <lane id=":node4A_19_0" index="0" speed="13.89" length="14.21" width="4.00" shape="1166.10,300.02 1168.61,301.52 1171.23,305.90 1172.11,312.02"/>
    </edge>
    <edge id=":node4B_0" function="internal">
        <lane id=":node4B_0_0" index="0" speed="13.89" length="9.69" width="4.00" shape="1163.98,19.95 1163.60,17.32 1162.47,15.44 1160.60,14.32 1157.97,13.94"/>
    </edge>
    <edge id=":node4B_1" function="internal">
        <lane id=":node4B_1_0" index="0" speed="13.89" length="24.02" width="4.00" shape="1163.98,19.95 1163.99,-4.07"/>
        <lane id=":node4B_1_1" index="1" speed="13.89" length="24.02" width="4.00" shape="1167.98,19.95 1167.99,-4.07"/>
    </edge>
    <edge id=":node4B_3" function="internal">
        <lane id=":node4B_3_0" index="0" speed="13.89" length="8.39" width="4.00" shape="1167.98,19.95 1168.85,13.82 1169.98,11.93"/>
    </edge>
    <edge id=":node4B_16" function="internal">
        <lane id=":node4B_16_0" index="0" speed="13.89" length="14.20" width="4.00" shape="1169.98,11.93 1171.47,9.44 1175.85,6.82 1181.98,5.94"/>
    </edge>
    <edge id=":node4B_4" function="internal">
        <lane id=":node4B_4_0" index="0" speed="13.89" length="9.68" width="4.00" shape="1181.97,13.94 1179.35,14.32 1177.47,15.44 1176.35,17.32 1175.98,19.94"/>
    </edge>
    <edge id=":node4B_5" function="internal">
        <lane id=":node4B_5_0" index="0" speed="13.89" length="24.00" width="4.00" shape="1181.97,13.94 1157.97,13.94"/>
        <lane id=":node4B_5_1" index="1" speed="13.89" length="24.00" width="4.00" shape="1181.98,9.94 1157.97,9.94"/>
    </edge>
    <edge id=":node4B_7" function="internal">
        <lane id=":node4B_7_0" index="0" speed="13.89" length="8.37" width="4.00" shape="1181.98,9.94 1175.85,9.07 1173.98,7.94"/>
    </edge>
    <edge id=":node4B_17" function="internal">
        <lane id=":node4B_17_0" index="0" speed="13.89" length="14.22" width="4.00" shape="1173.98,7.94 1171.47,6.44 1168.85,2.06 1167.99,-4.07"/>
    </edge>
    <edge id=":node4B_8" function="internal">